<?xml version="1.0" encoding="UTF-8"?>

<!-- generated on 2024-09-16 21:16:02.828744 by osmWebWizard.py v1_20_0+0002-343658e7c64
<configuration>
    <net-file value="C:\Users\laboratorio\Sumo\2024-09-16-21-15-53\osm.net.xml.gz"/>
    <output-trip-file value="C:\Users\laboratorio\Sumo\2024-09-16-21-15-53\osm.pedestrian.trips.xml"/>
    <route-file value="C:\Users\laboratorio\Sumo\2024-09-16-21-15-53\osm.pedestrian.rou.xml"/>
    <pedestrians value="True"/>
    <prefix value="ped"/>
    <vehicle-class value="pedestrian"/>
    <fringe-factor value="1"/>
    <max-distance value="2000.0"/>
    <insertion-density value="500.0"/>
</configuration>
-->

<routes xmlns:xsi="http://www.w3.org/2001/XMLSchema-instance" xsi:noNamespaceSchemaLocation="http://sumo.dlr.de/xsd/routes_file.xsd">
    <vType id="ped_pedestrian" vClass="pedestrian"/>
    <person id="ped0" depart="0.00" type="ped_pedestrian">
        <walk from="390523325#0" to="-193131677"/>
    </person>
    <person id="ped1" depart="1.47" type="ped_pedestrian">
        <walk from="193131674#0" to="184515323#4"/>
    </person>
    <person id="ped2" depart="2.93" type="ped_pedestrian">
        <walk from="390523331" to="390523325#0"/>
    </person>
    <person id="ped3" depart="4.40" type="ped_pedestrian">
        <walk from="391275414#0" to="-390523329"/>
    </person>
    <person id="ped4" depart="5.87" type="ped_pedestrian">
        <walk from="193131677" to="-193131677"/>
    </person>
    <person id="ped5" depart="7.34" type="ped_pedestrian">
        <walk from="184515323#4" to="307900765#0"/>
    </person>
    <person id="ped6" depart="8.80" type="ped_pedestrian">
        <walk from="-193131677" to="184515323#4"/>
    </person>
    <person id="ped7" depart="10.27" type="ped_pedestrian">
        <walk from="390523325#0" to="307900765#0"/>
    </person>
    <person id="ped8" depart="11.74" type="ped_pedestrian">
        <walk from="184515323#4" to="390523320#1"/>
    </person>
    <person id="ped9" depart="13.21" type="ped_pedestrian">
        <walk from="390523335" to="-193131677"/>
    </person>
    <person id="ped10" depart="14.67" type="ped_pedestrian">
        <walk from="390523335" to="390523325#1"/>
    </person>
    <person id="ped11" depart="16.14" type="ped_pedestrian">
        <walk from="193131674#1" to="184515323#0"/>
    </person>
    <person id="ped12" depart="17.61" type="ped_pedestrian">
        <walk from="981022850#0" to="193131674#1"/>
    </person>
    <person id="ped13" depart="19.08" type="ped_pedestrian">
        <walk from="-390523331" to="-390523331"/>
    </person>
    <person id="ped14" depart="20.54" type="ped_pedestrian">
        <walk from="390523337#1" to="390523320#2"/>
    </person>
    <person id="ped15" depart="22.01" type="ped_pedestrian">
        <walk from="390523335" to="390523331"/>
    </person>
    <person id="ped16" depart="23.48" type="ped_pedestrian">
        <walk from="307900765#0" to="981022850#0"/>
    </person>
    <person id="ped17" depart="24.95" type="ped_pedestrian">
        <walk from="193131674#2" to="390523320#1"/>
    </person>
    <person id="ped18" depart="26.41" type="ped_pedestrian">
        <walk from="390523337#1" to="390523320#2"/>
    </person>
    <person id="ped19" depart="27.88" type="ped_pedestrian">
        <walk from="390523337#1" to="390523320#1"/>
    </person>
    <person id="ped20" depart="29.35" type="ped_pedestrian">
        <walk from="390523325#1" to="-390523329"/>
    </person>
    <person id="ped21" depart="30.82" type="ped_pedestrian">
        <walk from="184515323#6" to="193131674#0"/>
    </person>
    <person id="ped22" depart="32.28" type="ped_pedestrian">
        <walk from="-390523329" to="184515323#6"/>
    </person>
    <person id="ped23" depart="33.75" type="ped_pedestrian">
        <walk from="-390523331" to="193131674#0"/>
    </person>
    <person id="ped24" depart="35.22" type="ped_pedestrian">
        <walk from="390523320#2" to="193131674#2"/>
    </person>
    <person id="ped25" depart="36.69" type="ped_pedestrian">
        <walk from="193131674#2" to="184515323#4"/>
    </person>
    <person id="ped26" depart="38.15" type="ped_pedestrian">
        <walk from="184515323#6" to="391275414#1"/>
    </person>
    <person id="ped27" depart="39.62" type="ped_pedestrian">
        <walk from="390523325#0" to="390523320#2"/>
    </person>
    <person id="ped28" depart="41.09" type="ped_pedestrian">
        <walk from="184515323#0" to="390523331"/>
    </person>
    <person id="ped29" depart="42.56" type="ped_pedestrian">
        <walk from="184515323#0" to="193131674#2"/>
    </person>
    <person id="ped30" depart="44.02" type="ped_pedestrian">
        <walk from="981022850#0" to="390523325#0"/>
    </person>
    <person id="ped31" depart="45.49" type="ped_pedestrian">
        <walk from="390523320#1" to="390523325#1"/>
    </person>
    <person id="ped32" depart="46.96" type="ped_pedestrian">
        <walk from="390523337#1" to="390523335"/>
    </person>
    <person id="ped33" depart="48.43" type="ped_pedestrian">
        <walk from="184515323#6" to="-193131677"/>
    </person>
    <person id="ped34" depart="49.89" type="ped_pedestrian">
        <walk from="193131674#0" to="184515323#6"/>
    </person>
    <person id="ped35" depart="51.36" type="ped_pedestrian">
        <walk from="184515323#4" to="391275414#1"/>
    </person>
    <person id="ped36" depart="52.83" type="ped_pedestrian">
        <walk from="391275414#0" to="193131674#0"/>
    </person>
    <person id="ped37" depart="54.30" type="ped_pedestrian">
        <walk from="390523325#0" to="193131674#2"/>
    </person>
    <person id="ped38" depart="55.76" type="ped_pedestrian">
        <walk from="391275414#1" to="259692060"/>
    </person>
    <person id="ped39" depart="57.23" type="ped_pedestrian">
        <walk from="184515323#6" to="184515323#6"/>
    </person>
    <person id="ped40" depart="58.70" type="ped_pedestrian">
        <walk from="390523320#1" to="184515323#6"/>
    </person>
    <person id="ped41" depart="60.17" type="ped_pedestrian">
        <walk from="390523320#1" to="391275414#0"/>
    </person>
    <person id="ped42" depart="61.63" type="ped_pedestrian">
        <walk from="193131674#2" to="184515323#4"/>
    </person>
    <person id="ped43" depart="63.10" type="ped_pedestrian">
        <walk from="981022850#0" to="307900765#0"/>
    </person>
    <person id="ped44" depart="64.57" type="ped_pedestrian">
        <walk from="-390523331" to="-390523329"/>
    </person>
    <person id="ped45" depart="66.04" type="ped_pedestrian">
        <walk from="-390523331" to="390523320#2"/>
    </person>
    <person id="ped46" depart="67.50" type="ped_pedestrian">
        <walk from="390523335" to="193131677"/>
    </person>
    <person id="ped47" depart="68.97" type="ped_pedestrian">
        <walk from="-390523329" to="193131674#2"/>
    </person>
    <person id="ped48" depart="70.44" type="ped_pedestrian">
        <walk from="981022850#0" to="307900765#0"/>
    </person>
    <person id="ped49" depart="71.91" type="ped_pedestrian">
        <walk from="981022850#0" to="390523337#1"/>
    </person>
    <person id="ped50" depart="73.37" type="ped_pedestrian">
        <walk from="-193131677" to="390523325#1"/>
    </person>
    <person id="ped51" depart="74.84" type="ped_pedestrian">
        <walk from="390523325#0" to="307900765#0"/>
    </person>
    <person id="ped52" depart="76.31" type="ped_pedestrian">
        <walk from="184515323#6" to="390523325#0"/>
    </person>
    <person id="ped53" depart="77.78" type="ped_pedestrian">
        <walk from="-390523331" to="193131677"/>
    </person>
    <person id="ped54" depart="79.24" type="ped_pedestrian">
        <walk from="193131677" to="391275414#1"/>
    </person>
    <person id="ped55" depart="80.71" type="ped_pedestrian">
        <walk from="391275414#0" to="184515323#6"/>
    </person>
    <person id="ped56" depart="82.18" type="ped_pedestrian">
        <walk from="307900765#0" to="184515323#0"/>
    </person>
    <person id="ped57" depart="83.65" type="ped_pedestrian">
        <walk from="391275414#1" to="391275414#0"/>
    </person>
    <person id="ped58" depart="85.11" type="ped_pedestrian">
        <walk from="193131674#0" to="390523325#0"/>
    </person>
    <person id="ped59" depart="86.58" type="ped_pedestrian">
        <walk from="390523320#2" to="184515323#0"/>
    </person>
    <person id="ped60" depart="88.05" type="ped_pedestrian">
        <walk from="390523331" to="307900765#0"/>
    </person>
    <person id="ped61" depart="89.52" type="ped_pedestrian">
        <walk from="390523335" to="307900765#0"/>
    </person>
    <person id="ped62" depart="90.98" type="ped_pedestrian">
        <walk from="-193131677" to="193131674#1"/>
    </person>
    <person id="ped63" depart="92.45" type="ped_pedestrian">
        <walk from="-193131677" to="391275414#1"/>
    </person>
    <person id="ped64" depart="93.92" type="ped_pedestrian">
        <walk from="391275414#0" to="390523337#1"/>
    </person>
    <person id="ped65" depart="95.39" type="ped_pedestrian">
        <walk from="193131674#0" to="-390523329"/>
    </person>
    <person id="ped66" depart="96.85" type="ped_pedestrian">
        <walk from="391275414#0" to="391275414#1"/>
    </person>
    <person id="ped67" depart="98.32" type="ped_pedestrian">
        <walk from="-390523329" to="259692060"/>
    </person>
    <person id="ped68" depart="99.79" type="ped_pedestrian">
        <walk from="-390523329" to="390523331"/>
    </person>
    <person id="ped69" depart="101.26" type="ped_pedestrian">
        <walk from="390523331" to="-390523331"/>
    </person>
    <person id="ped70" depart="102.72" type="ped_pedestrian">
        <walk from="259692060" to="390523320#1"/>
    </person>
    <person id="ped71" depart="104.19" type="ped_pedestrian">
        <walk from="184515323#6" to="391275414#0"/>
    </person>
    <person id="ped72" depart="105.66" type="ped_pedestrian">
        <walk from="193131677" to="184515323#4"/>
    </person>
    <person id="ped73" depart="107.13" type="ped_pedestrian">
        <walk from="307900765#0" to="390523331"/>
    </person>
    <person id="ped74" depart="108.59" type="ped_pedestrian">
        <walk from="184515323#4" to="193131674#0"/>
    </person>
    <person id="ped75" depart="110.06" type="ped_pedestrian">
        <walk from="981022850#0" to="390523325#0"/>
    </person>
    <person id="ped76" depart="111.53" type="ped_pedestrian">
        <walk from="193131677" to="307900765#0"/>
    </person>
    <person id="ped77" depart="113.00" type="ped_pedestrian">
        <walk from="-390523331" to="184515323#4"/>
    </person>
    <person id="ped78" depart="114.46" type="ped_pedestrian">
        <walk from="193131674#1" to="390523320#1"/>
    </person>
    <person id="ped79" depart="115.93" type="ped_pedestrian">
        <walk from="184515323#6" to="184515323#4"/>
    </person>
    <person id="ped80" depart="117.40" type="ped_pedestrian">
        <walk from="-390523329" to="390523320#2"/>
    </person>
    <person id="ped81" depart="118.87" type="ped_pedestrian">
        <walk from="184515323#6" to="391275414#0"/>
    </person>
    <person id="ped82" depart="120.33" type="ped_pedestrian">
        <walk from="390523337#1" to="-390523329"/>
    </person>
    <person id="ped83" depart="121.80" type="ped_pedestrian">
        <walk from="184515323#6" to="390523325#0"/>
    </person>
    <person id="ped84" depart="123.27" type="ped_pedestrian">
        <walk from="184515323#4" to="-390523331"/>
    </person>
    <person id="ped85" depart="124.74" type="ped_pedestrian">
        <walk from="391275414#1" to="390523320#1"/>
    </person>
    <person id="ped86" depart="126.20" type="ped_pedestrian">
        <walk from="259692060" to="390523335"/>
    </person>
    <person id="ped87" depart="127.67" type="ped_pedestrian">
        <walk from="390523335" to="184515323#4"/>
    </person>
    <person id="ped88" depart="129.14" type="ped_pedestrian">
        <walk from="-390523331" to="193131677"/>
    </person>
    <person id="ped89" depart="130.61" type="ped_pedestrian">
        <walk from="193131677" to="259692060"/>
    </person>
    <person id="ped90" depart="132.07" type="ped_pedestrian">
        <walk from="390523331" to="390523325#0"/>
    </person>
    <person id="ped91" depart="133.54" type="ped_pedestrian">
        <walk from="981022850#0" to="-390523331"/>
    </person>
    <person id="ped92" depart="135.01" type="ped_pedestrian">
        <walk from="193131674#2" to="193131674#1"/>
    </person>
    <person id="ped93" depart="136.48" type="ped_pedestrian">
        <walk from="390523337#1" to="184515323#6"/>
    </person>
    <person id="ped94" depart="137.94" type="ped_pedestrian">
        <walk from="184515323#4" to="193131677"/>
    </person>
    <person id="ped95" depart="139.41" type="ped_pedestrian">
        <walk from="193131677" to="193131674#0"/>
    </person>
    <person id="ped96" depart="140.88" type="ped_pedestrian">
        <walk from="184515323#6" to="391275414#1"/>
    </person>
    <person id="ped97" depart="142.35" type="ped_pedestrian">
        <walk from="193131677" to="390523337#1"/>
    </person>
    <person id="ped98" depart="143.81" type="ped_pedestrian">
        <walk from="390523320#1" to="-390523329"/>
    </person>
    <person id="ped99" depart="145.28" type="ped_pedestrian">
        <walk from="981022850#0" to="390523337#1"/>
    </person>
    <person id="ped100" depart="146.75" type="ped_pedestrian">
        <walk from="981022850#0" to="391275414#1"/>
    </person>
    <person id="ped101" depart="148.22" type="ped_pedestrian">
        <walk from="390523337#1" to="184515323#0"/>
    </person>
    <person id="ped102" depart="149.68" type="ped_pedestrian">
        <walk from="259692060" to="184515323#4"/>
    </person>
    <person id="ped103" depart="151.15" type="ped_pedestrian">
        <walk from="193131674#2" to="-390523329"/>
    </person>
    <person id="ped104" depart="152.62" type="ped_pedestrian">
        <walk from="193131674#2" to="981022850#0"/>
    </person>
    <person id="ped105" depart="154.09" type="ped_pedestrian">
        <walk from="184515323#6" to="390523335"/>
    </person>
    <person id="ped106" depart="155.55" type="ped_pedestrian">
        <walk from="259692060" to="193131677"/>
    </person>
    <person id="ped107" depart="157.02" type="ped_pedestrian">
        <walk from="981022850#0" to="981022850#0"/>
    </person>
    <person id="ped108" depart="158.49" type="ped_pedestrian">
        <walk from="390523320#1" to="390523325#1"/>
    </person>
    <person id="ped109" depart="159.96" type="ped_pedestrian">
        <walk from="184515323#0" to="193131674#0"/>
    </person>
    <person id="ped110" depart="161.42" type="ped_pedestrian">
        <walk from="981022850#0" to="390523320#1"/>
    </person>
    <person id="ped111" depart="162.89" type="ped_pedestrian">
        <walk from="307900765#0" to="390523331"/>
    </person>
    <person id="ped112" depart="164.36" type="ped_pedestrian">
        <walk from="-390523329" to="390523320#1"/>
    </person>
    <person id="ped113" depart="165.83" type="ped_pedestrian">
        <walk from="307900765#0" to="390523337#1"/>
    </person>
    <person id="ped114" depart="167.29" type="ped_pedestrian">
        <walk from="184515323#0" to="981022850#0"/>
    </person>
    <person id="ped115" depart="168.76" type="ped_pedestrian">
        <walk from="-390523329" to="184515323#4"/>
    </person>
    <person id="ped116" depart="170.23" type="ped_pedestrian">
        <walk from="390523320#2" to="390523325#0"/>
    </person>
    <person id="ped117" depart="171.70" type="ped_pedestrian">
        <walk from="184515323#6" to="-390523331"/>
    </person>
    <person id="ped118" depart="173.16" type="ped_pedestrian">
        <walk from="391275414#0" to="184515323#6"/>
    </person>
    <person id="ped119" depart="174.63" type="ped_pedestrian">
        <walk from="390523320#2" to="390523320#2"/>
    </person>
    <person id="ped120" depart="176.10" type="ped_pedestrian">
        <walk from="193131677" to="390523320#1"/>
    </person>
    <person id="ped121" depart="177.57" type="ped_pedestrian">
        <walk from="307900765#0" to="391275414#1"/>
    </person>
    <person id="ped122" depart="179.03" type="ped_pedestrian">
        <walk from="184515323#4" to="390523325#1"/>
    </person>
    <person id="ped123" depart="180.50" type="ped_pedestrian">
        <walk from="184515323#6" to="193131674#2"/>
    </person>
    <person id="ped124" depart="181.97" type="ped_pedestrian">
        <walk from="390523325#0" to="193131674#0"/>
    </person>
    <person id="ped125" depart="183.44" type="ped_pedestrian">
        <walk from="193131674#0" to="390523331"/>
    </person>
    <person id="ped126" depart="184.90" type="ped_pedestrian">
        <walk from="-390523329" to="259692060"/>
    </person>
    <person id="ped127" depart="186.37" type="ped_pedestrian">
        <walk from="981022850#0" to="981022850#0"/>
    </person>
    <person id="ped128" depart="187.84" type="ped_pedestrian">
        <walk from="-390523329" to="184515323#4"/>
    </person>
    <person id="ped129" depart="189.31" type="ped_pedestrian">
        <walk from="184515323#6" to="391275414#1"/>
    </person>
    <person id="ped130" depart="190.77" type="ped_pedestrian">
        <walk from="391275414#0" to="391275414#0"/>
    </person>
    <person id="ped131" depart="192.24" type="ped_pedestrian">
        <walk from="193131674#2" to="184515323#0"/>
    </person>
    <person id="ped132" depart="193.71" type="ped_pedestrian">
        <walk from="390523337#1" to="390523325#1"/>
    </person>
    <person id="ped133" depart="195.18" type="ped_pedestrian">
        <walk from="390523320#2" to="981022850#0"/>
    </person>
    <person id="ped134" depart="196.64" type="ped_pedestrian">
        <walk from="390523325#0" to="-193131677"/>
    </person>
    <person id="ped135" depart="198.11" type="ped_pedestrian">
        <walk from="390523335" to="193131674#0"/>
    </person>
    <person id="ped136" depart="199.58" type="ped_pedestrian">
        <walk from="390523325#0" to="391275414#1"/>
    </person>
    <person id="ped137" depart="201.05" type="ped_pedestrian">
        <walk from="-390523331" to="-390523331"/>
    </person>
    <person id="ped138" depart="202.51" type="ped_pedestrian">
        <walk from="-390523331" to="390523320#1"/>
    </person>
    <person id="ped139" depart="203.98" type="ped_pedestrian">
        <walk from="184515323#6" to="390523320#2"/>
    </person>
    <person id="ped140" depart="205.45" type="ped_pedestrian">
        <walk from="390523325#1" to="184515323#4"/>
    </person>
    <person id="ped141" depart="206.92" type="ped_pedestrian">
        <walk from="390523320#2" to="184515323#6"/>
    </person>
    <person id="ped142" depart="208.38" type="ped_pedestrian">
        <walk from="259692060" to="391275414#0"/>
    </person>
    <person id="ped143" depart="209.85" type="ped_pedestrian">
        <walk from="390523337#1" to="-390523331"/>
    </person>
    <person id="ped144" depart="211.32" type="ped_pedestrian">
        <walk from="193131677" to="193131674#0"/>
    </person>
    <person id="ped145" depart="212.79" type="ped_pedestrian">
        <walk from="-193131677" to="390523331"/>
    </person>
    <person id="ped146" depart="214.25" type="ped_pedestrian">
        <walk from="390523325#0" to="184515323#6"/>
    </person>
    <person id="ped147" depart="215.72" type="ped_pedestrian">
        <walk from="390523331" to="390523320#1"/>
    </person>
    <person id="ped148" depart="217.19" type="ped_pedestrian">
        <walk from="193131677" to="-193131677"/>
    </person>
    <person id="ped149" depart="218.66" type="ped_pedestrian">
        <walk from="-390523329" to="391275414#0"/>
    </person>
    <person id="ped150" depart="220.12" type="ped_pedestrian">
        <walk from="391275414#0" to="390523320#1"/>
    </person>
    <person id="ped151" depart="221.59" type="ped_pedestrian">
        <walk from="390523337#1" to="390523320#1"/>
    </person>
    <person id="ped152" depart="223.06" type="ped_pedestrian">
        <walk from="184515323#0" to="-390523331"/>
    </person>
    <person id="ped153" depart="224.53" type="ped_pedestrian">
        <walk from="193131674#0" to="391275414#0"/>
    </person>
    <person id="ped154" depart="225.99" type="ped_pedestrian">
        <walk from="390523335" to="390523337#1"/>
    </person>
    <person id="ped155" depart="227.46" type="ped_pedestrian">
        <walk from="391275414#0" to="184515323#4"/>
    </person>
    <person id="ped156" depart="228.93" type="ped_pedestrian">
        <walk from="184515323#6" to="-390523331"/>
    </person>
    <person id="ped157" depart="230.40" type="ped_pedestrian">
        <walk from="390523335" to="391275414#0"/>
    </person>
    <person id="ped158" depart="231.86" type="ped_pedestrian">
        <walk from="193131674#2" to="390523320#2"/>
    </person>
    <person id="ped159" depart="233.33" type="ped_pedestrian">
        <walk from="184515323#0" to="391275414#1"/>
    </person>
    <person id="ped160" depart="234.80" type="ped_pedestrian">
        <walk from="391275414#0" to="981022850#0"/>
    </person>
    <person id="ped161" depart="236.27" type="ped_pedestrian">
        <walk from="390523335" to="391275414#0"/>
    </person>
    <person id="ped162" depart="237.73" type="ped_pedestrian">
        <walk from="-193131677" to="390523331"/>
    </person>
    <person id="ped163" depart="239.20" type="ped_pedestrian">
        <walk from="193131674#1" to="391275414#1"/>
    </person>
    <person id="ped164" depart="240.67" type="ped_pedestrian">
        <walk from="390523335" to="391275414#0"/>
    </person>
    <person id="ped165" depart="242.14" type="ped_pedestrian">
        <walk from="390523335" to="184515323#6"/>
    </person>
    <person id="ped166" depart="243.60" type="ped_pedestrian">
        <walk from="390523335" to="-390523331"/>
    </person>
    <person id="ped167" depart="245.07" type="ped_pedestrian">
        <walk from="391275414#0" to="390523337#1"/>
    </person>
    <person id="ped168" depart="246.54" type="ped_pedestrian">
        <walk from="184515323#4" to="390523335"/>
    </person>
    <person id="ped169" depart="248.01" type="ped_pedestrian">
        <walk from="259692060" to="193131674#0"/>
    </person>
    <person id="ped170" depart="249.47" type="ped_pedestrian">
        <walk from="390523335" to="184515323#6"/>
    </person>
    <person id="ped171" depart="250.94" type="ped_pedestrian">
        <walk from="-193131677" to="184515323#4"/>
    </person>
    <person id="ped172" depart="252.41" type="ped_pedestrian">
        <walk from="193131674#1" to="391275414#0"/>
    </person>
    <person id="ped173" depart="253.88" type="ped_pedestrian">
        <walk from="981022850#0" to="193131674#0"/>
    </person>
    <person id="ped174" depart="255.34" type="ped_pedestrian">
        <walk from="390523325#0" to="193131674#2"/>
    </person>
    <person id="ped175" depart="256.81" type="ped_pedestrian">
        <walk from="981022850#0" to="307900765#0"/>
    </person>
    <person id="ped176" depart="258.28" type="ped_pedestrian">
        <walk from="391275414#1" to="-390523331"/>
    </person>
    <person id="ped177" depart="259.75" type="ped_pedestrian">
        <walk from="981022850#0" to="184515323#0"/>
    </person>
    <person id="ped178" depart="261.21" type="ped_pedestrian">
        <walk from="981022850#0" to="184515323#6"/>
    </person>
    <person id="ped179" depart="262.68" type="ped_pedestrian">
        <walk from="-390523331" to="193131677"/>
    </person>
    <person id="ped180" depart="264.15" type="ped_pedestrian">
        <walk from="390523331" to="193131674#0"/>
    </person>
    <person id="ped181" depart="265.62" type="ped_pedestrian">
        <walk from="390523320#2" to="307900765#0"/>
    </person>
    <person id="ped182" depart="267.08" type="ped_pedestrian">
        <walk from="193131674#2" to="390523320#1"/>
    </person>
    <person id="ped183" depart="268.55" type="ped_pedestrian">
        <walk from="184515323#6" to="390523325#1"/>
    </person>
    <person id="ped184" depart="270.02" type="ped_pedestrian">
        <walk from="-193131677" to="391275414#1"/>
    </person>
    <person id="ped185" depart="271.49" type="ped_pedestrian">
        <walk from="307900765#0" to="390523325#1"/>
    </person>
    <person id="ped186" depart="272.95" type="ped_pedestrian">
        <walk from="390523331" to="390523325#0"/>
    </person>
    <person id="ped187" depart="274.42" type="ped_pedestrian">
        <walk from="193131674#2" to="-390523329"/>
    </person>
    <person id="ped188" depart="275.89" type="ped_pedestrian">
        <walk from="390523325#0" to="193131674#1"/>
    </person>
    <person id="ped189" depart="277.36" type="ped_pedestrian">
        <walk from="193131674#0" to="390523337#1"/>
    </person>
    <person id="ped190" depart="278.82" type="ped_pedestrian">
        <walk from="390523325#1" to="193131674#0"/>
    </person>
    <person id="ped191" depart="280.29" type="ped_pedestrian">
        <walk from="193131674#0" to="193131674#2"/>
    </person>
    <person id="ped192" depart="281.76" type="ped_pedestrian">
        <walk from="193131674#2" to="193131674#0"/>
    </person>
    <person id="ped193" depart="283.23" type="ped_pedestrian">
        <walk from="-390523331" to="193131677"/>
    </person>
    <person id="ped194" depart="284.69" type="ped_pedestrian">
        <walk from="391275414#1" to="390523325#0"/>
    </person>
    <person id="ped195" depart="286.16" type="ped_pedestrian">
        <walk from="391275414#0" to="390523320#2"/>
    </person>
    <person id="ped196" depart="287.63" type="ped_pedestrian">
        <walk from="193131674#0" to="390523320#1"/>
    </person>
    <person id="ped197" depart="289.10" type="ped_pedestrian">
        <walk from="-193131677" to="193131674#0"/>
    </person>
    <person id="ped198" depart="290.56" type="ped_pedestrian">
        <walk from="193131677" to="390523320#1"/>
    </person>
    <person id="ped199" depart="292.03" type="ped_pedestrian">
        <walk from="390523325#0" to="259692060"/>
    </person>
    <person id="ped200" depart="293.50" type="ped_pedestrian">
        <walk from="193131677" to="184515323#4"/>
    </person>
    <person id="ped201" depart="294.97" type="ped_pedestrian">
        <walk from="259692060" to="391275414#0"/>
    </person>
    <person id="ped202" depart="296.43" type="ped_pedestrian">
        <walk from="390523335" to="184515323#0"/>
    </person>
    <person id="ped203" depart="297.90" type="ped_pedestrian">
        <walk from="-390523329" to="307900765#0"/>
    </person>
    <person id="ped204" depart="299.37" type="ped_pedestrian">
        <walk from="390523320#2" to="193131674#1"/>
    </person>
    <person id="ped205" depart="300.84" type="ped_pedestrian">
        <walk from="390523337#1" to="390523331"/>
    </person>
    <person id="ped206" depart="302.30" type="ped_pedestrian">
        <walk from="390523325#0" to="184515323#4"/>
    </person>
    <person id="ped207" depart="303.77" type="ped_pedestrian">
        <walk from="184515323#4" to="-193131677"/>
    </person>
    <person id="ped208" depart="305.24" type="ped_pedestrian">
        <walk from="184515323#6" to="259692060"/>
    </person>
    <person id="ped209" depart="306.71" type="ped_pedestrian">
        <walk from="390523337#1" to="-390523329"/>
    </person>
    <person id="ped210" depart="308.17" type="ped_pedestrian">
        <walk from="193131677" to="390523320#2"/>
    </person>
    <person id="ped211" depart="309.64" type="ped_pedestrian">
        <walk from="184515323#4" to="390523325#1"/>
    </person>
    <person id="ped212" depart="311.11" type="ped_pedestrian">
        <walk from="259692060" to="184515323#6"/>
    </person>
    <person id="ped213" depart="312.58" type="ped_pedestrian">
        <walk from="390523325#0" to="-193131677"/>
    </person>
    <person id="ped214" depart="314.04" type="ped_pedestrian">
        <walk from="390523331" to="390523331"/>
    </person>
    <person id="ped215" depart="315.51" type="ped_pedestrian">
        <walk from="-390523331" to="193131677"/>
    </person>
    <person id="ped216" depart="316.98" type="ped_pedestrian">
        <walk from="184515323#0" to="981022850#0"/>
    </person>
    <person id="ped217" depart="318.45" type="ped_pedestrian">
        <walk from="307900765#0" to="-390523329"/>
    </person>
    <person id="ped218" depart="319.91" type="ped_pedestrian">
        <walk from="184515323#6" to="390523337#1"/>
    </person>
    <person id="ped219" depart="321.38" type="ped_pedestrian">
        <walk from="259692060" to="390523335"/>
    </person>
    <person id="ped220" depart="322.85" type="ped_pedestrian">
        <walk from="390523325#0" to="981022850#0"/>
    </person>
    <person id="ped221" depart="324.32" type="ped_pedestrian">
        <walk from="390523320#2" to="391275414#1"/>
    </person>
    <person id="ped222" depart="325.78" type="ped_pedestrian">
        <walk from="391275414#0" to="390523320#2"/>
    </person>
    <person id="ped223" depart="327.25" type="ped_pedestrian">
        <walk from="390523325#1" to="307900765#0"/>
    </person>
    <person id="ped224" depart="328.72" type="ped_pedestrian">
        <walk from="390523337#1" to="390523320#1"/>
    </person>
    <person id="ped225" depart="330.19" type="ped_pedestrian">
        <walk from="391275414#0" to="390523331"/>
    </person>
    <person id="ped226" depart="331.65" type="ped_pedestrian">
        <walk from="259692060" to="184515323#6"/>
    </person>
    <person id="ped227" depart="333.12" type="ped_pedestrian">
        <walk from="184515323#6" to="390523325#0"/>
    </person>
    <person id="ped228" depart="334.59" type="ped_pedestrian">
        <walk from="390523331" to="307900765#0"/>
    </person>