<?xml version="1.0" encoding="UTF-8"?>

<!-- generated on 2024-09-16 21:16:01.530133 by osmWebWizard.py v1_20_0+0002-343658e7c64
<configuration>
    <net-file value="C:\Users\laboratorio\Sumo\2024-09-16-21-15-53\osm.net.xml.gz"/>
    <output-trip-file value="C:\Users\laboratorio\Sumo\2024-09-16-21-15-53\osm.bus.trips.xml"/>
    <route-file value="C:\Users\laboratorio\Sumo\2024-09-16-21-15-53\osm.bus.rou.xml"/>
    <prefix value="bus"/>
    <trip-attributes value="departLane=&quot;best&quot;"/>
    <fringe-start-attributes value="departSpeed=&quot;max&quot;"/>
    <vehicle-class value="bus"/>
    <fringe-factor value="5"/>
    <vclass value="bus"/>
    <via-edge-types value="highway.motorway,highway.motorway_link,highway.trunk_link,highway.primary_link,highway.secondary_link,highway.tertiary_link"/>
    <min-distance value="600.0"/>
    <min-distance.fringe value="10.0"/>
    <remove-loops value="True"/>
    <validate value="True"/>
    <insertion-density value="10.0"/>
</configuration>
-->

<!-- generated on 2024-09-16 21:16:01 by Eclipse SUMO duarouter Version 1.20.0
<configuration xmlns:xsi="http://www.w3.org/2001/XMLSchema-instance" xsi:noNamespaceSchemaLocation="http://sumo.dlr.de/xsd/duarouterConfiguration.xsd">

    <input>
        <net-file value="C:\Users\laboratorio\Sumo\2024-09-16-21-15-53\osm.net.xml.gz"/>
        <route-files value="C:\Users\laboratorio\Sumo\2024-09-16-21-15-53\osm.bus.trips.xml"/>
    </input>

    <output>
        <output-file value="C:\Users\laboratorio\Sumo\2024-09-16-21-15-53\osm.bus.trips.xml.tmp"/>
        <alternatives-output value="NUL"/>
        <write-trips value="true"/>
    </output>

    <processing>
        <remove-loops value="true"/>
    </processing>

    <time>
        <begin value="0.0"/>
        <end value="3600.0"/>
    </time>

    <report>
        <no-warnings value="true"/>
        <ignore-errors value="true"/>
        <no-step-log value="true"/>
    </report>

</configuration>
-->

<routes xmlns:xsi="http://www.w3.org/2001/XMLSchema-instance" xsi:noNamespaceSchemaLocation="http://sumo.dlr.de/xsd/routes_file.xsd">
    <vType id="bus_bus" vClass="bus"/>
    <trip id="bus0" type="bus_bus" depart="0.00" departLane="best" from="-199341732#1" to="-184515335#3"/>
    <trip id="bus1" type="bus_bus" depart="6.26" departLane="best" departSpeed="max" from="-342138970#1" to="-259692596#0"/>
    <trip id="bus2" type="bus_bus" depart="12.53" departLane="best" from="534715114" to="-194338161#0"/>
    <trip id="bus3" type="bus_bus" depart="18.79" departLane="best" from="-305068793#2" to="199341664#1"/>
    <trip id="bus4" type="bus_bus" depart="25.06" departLane="best" departSpeed="max" from="200621109#0" to="-199341686#3"/>
    <trip id="bus5" type="bus_bus" depart="31.32" departLane="best" from="-305135153#0" to="-225971206"/>
    <trip id="bus6" type="bus_bus" depart="37.58" departLane="best" departSpeed="max" from="363199286" to="-184515330#0"/>
    <trip id="bus7" type="bus_bus" depart="43.85" departLane="best" from="390564847#0" to="-199341700#0"/>
    <trip id="bus8" type="bus_bus" depart="50.11" departLane="best" departSpeed="max" from="699104406#0" to="-49793790#3"/>
    <trip id="bus9" type="bus_bus" depart="56.37" departLane="best" departSpeed="max" from="390523327" to="240164154#0"/>
    <trip id="bus10" type="bus_bus" depart="62.64" departLane="best" from="391275414#0" to="199880987"/>
    <trip id="bus11" type="bus_bus" depart="68.90" departLane="best" from="-199341668#1" to="-305176897#0"/>
    <trip id="bus12" type="bus_bus" depart="75.17" departLane="best" from="-659429371#1" to="-240164157"/>
    <trip id="bus13" type="bus_bus" depart="81.43" departLane="best" departSpeed="max" from="341485109#0" to="659413628"/>
    <trip id="bus14" type="bus_bus" depart="87.69" departLane="best" departSpeed="max" from="199880991" to="240164150"/>
    <trip id="bus15" type="bus_bus" depart="93.96" departLane="best" from="240164152#1" to="-305176904"/>
    <trip id="bus17" type="bus_bus" depart="106.49" departLane="best" from="978818441#2" to="256890173"/>
    <trip id="bus18" type="bus_bus" depart="112.75" departLane="best" from="199341671#0" to="301511505"/>
    <trip id="bus19" type="bus_bus" depart="119.01" departLane="best" from="390527145#0" to="367452604#1"/>
    <trip id="bus20" type="bus_bus" depart="125.28" departLane="best" departSpeed="max" from="-390526209" to="305176892"/>
    <trip id="bus21" type="bus_bus" depart="131.54" departLane="best" departSpeed="max" from="-301511505" to="699104405"/>
    <trip id="bus22" type="bus_bus" depart="137.80" departLane="best" from="50012068" to="390523331"/>
    <trip id="bus23" type="bus_bus" depart="144.07" departLane="best" departSpeed="max" from="200621109#0" to="184515327#2"/>
    <trip id="bus24" type="bus_bus" depart="150.33" departLane="best" from="539540914#0" to="194338158#2"/>
    <trip id="bus25" type="bus_bus" depart="156.60" departLane="best" from="199341689" to="539264853"/>
    <trip id="bus26" type="bus_bus" depart="162.86" departLane="best" departSpeed="max" from="162070715" to="-259431917#0"/>
    <trip id="bus27" type="bus_bus" depart="169.12" departLane="best" departSpeed="max" from="-199341664#1" to="-193134171"/>
    <trip id="bus28" type="bus_bus" depart="175.39" departLane="best" from="199341680#1" to="240164168#0"/>
    <trip id="bus29" type="bus_bus" depart="181.65" departLane="best" from="307900764" to="191714267"/>
    <trip id="bus30" type="bus_bus" depart="187.92" departLane="best" from="986044147" to="199341680#3"/>
    <trip id="bus32" type="bus_bus" depart="200.44" departLane="best" departSpeed="max" from="-199341680#4" to="-193131675#2"/>
    <trip id="bus33" type="bus_bus" depart="206.71" departLane="best" from="191714268#2" to="699104408"/>
    <trip id="bus34" type="bus_bus" depart="212.97" departLane="best" from="194338156" to="-199341717"/>
    <trip id="bus35" type="bus_bus" depart="219.23" departLane="best" departSpeed="max" from="539540913#0" to="-50301278#2"/>
    <trip id="bus36" type="bus_bus" depart="225.50" departLane="best" departSpeed="max" from="-381445966#1" to="256890173"/>
    <trip id="bus37" type="bus_bus" depart="231.76" departLane="best" departSpeed="max" from="305176897#0" to="199341680#4"/>
    <trip id="bus39" type="bus_bus" depart="244.29" departLane="best" from="50301278#0" to="390529699"/>
    <trip id="bus40" type="bus_bus" depart="250.55" departLane="best" from="-390523329" to="-193309350#0"/>
    <trip id="bus41" type="bus_bus" depart="256.82" departLane="best" from="50301278#0" to="699104406#2"/>
    <trip id="bus42" type="bus_bus" depart="263.08" departLane="best" from="-199341662#1" to="197203441"/>
    <trip id="bus43" type="bus_bus" depart="269.35" departLane="best" from="-197203418" to="350463977#0"/>
    <trip id="bus44" type="bus_bus" depart="275.61" departLane="best" from="305176891" to="-199341680#0"/>
    <trip id="bus45" type="bus_bus" depart="281.87" departLane="best" from="193131675#2" to="199341695"/>
    <trip id="bus46" type="bus_bus" depart="288.14" departLane="best" departSpeed="max" from="341485109#0" to="-193309350#0"/>
    <trip id="bus47" type="bus_bus" depart="294.40" departLane="best" departSpeed="max" from="184515332#0" to="-240164157"/>
    <trip id="bus48" type="bus_bus" depart="300.67" departLane="best" from="986044146" to="259692595"/>
    <trip id="bus49" type="bus_bus" depart="306.93" departLane="best" from="184515851" to="199341671#0"/>
    <trip id="bus50" type="bus_bus" depart="313.19" departLane="best" from="-197203429#0" to="240164170#0"/>
    <trip id="bus51" type="bus_bus" depart="319.46" departLane="best" from="-305176889#3" to="539540914#0"/>
    <trip id="bus52" type="bus_bus" depart="325.72" departLane="best" from="390999304#0" to="-194338158#0"/>
    <trip id="bus53" type="bus_bus" depart="331.98" departLane="best" from="-305176897#2" to="260136266#4"/>
    <trip id="bus54" type="bus_bus" depart="338.25" departLane="best" departSpeed="max" from="-301511505" to="-199341680#0"/>
    <trip id="bus55" type="bus_bus" depart="344.51" departLane="best" from="193131675#0" to="381445966#0"/>
    <trip id="bus56" type="bus_bus" depart="350.78" departLane="best" from="360926608#1" to="-199880991"/>
    <trip id="bus57" type="bus_bus" depart="357.04" departLane="best" from="-199341666#4" to="-193131675#0"/>
    <trip id="bus58" type="bus_bus" depart="363.30" departLane="best" departSpeed="max" from="184515332#0" to="-194338159#1"/>
    <trip id="bus59" type="bus_bus" depart="369.57" departLane="best" departSpeed="max" from="286673108" to="301511499"/>
    <trip id="bus60" type="bus_bus" depart="375.83" departLane="best" departSpeed="max" from="912237642" to="-199341660#0"/>
    <trip id="bus61" type="bus_bus" depart="382.10" departLane="best" departSpeed="max" from="162070715" to="-50301278#1"/>
    <trip id="bus62" type="bus_bus" depart="388.36" departLane="best" from="391275414#0" to="-305135154#1"/>
    <trip id="bus64" type="bus_bus" depart="400.89" departLane="best" from="191714258" to="-457948144"/>
    <trip id="bus65" type="bus_bus" depart="407.15" departLane="best" from="199341668#1" to="-193302931"/>
    <trip id="bus66" type="bus_bus" depart="413.41" departLane="best" from="990174281" to="390529700#0"/>
    <trip id="bus67" type="bus_bus" depart="419.68" departLane="best" from="390564839" to="-199341711#0"/>
    <trip id="bus68" type="bus_bus" depart="425.94" departLane="best" from="193133897#1" to="543417446"/>
    <trip id="bus71" type="bus_bus" depart="444.73" departLane="best" from="199341671#0" to="-305176899#4"/>
    <trip id="bus72" type="bus_bus" depart="451.00" departLane="best" from="910969918" to="199880987"/>
    <trip id="bus73" type="bus_bus" depart="457.26" departLane="best" from="194338159#2" to="-225971206"/>
    <trip id="bus74" type="bus_bus" depart="463.53" departLane="best" departSpeed="max" from="194338158#0" to="-390566189#3"/>
    <trip id="bus76" type="bus_bus" depart="476.05" departLane="best" from="199341658" to="-199880991"/>
    <trip id="bus77" type="bus_bus" depart="482.32" departLane="best" from="199341695" to="301511499"/>
    <trip id="bus78" type="bus_bus" depart="488.58" departLane="best" from="-305176895#1" to="-199341668#3"/>
    <trip id="bus79" type="bus_bus" depart="494.84" departLane="best" departSpeed="max" from="504637415" to="-305135153#0"/>
    <trip id="bus80" type="bus_bus" depart="501.11" departLane="best" from="199341695" to="240164159"/>
    <trip id="bus81" type="bus_bus" depart="507.37" departLane="best" departSpeed="max" from="184515332#0" to="199880990"/>
    <trip id="bus83" type="bus_bus" depart="519.90" departLane="best" departSpeed="max" from="-260136265#3" to="305176897#1"/>
    <trip id="bus84" type="bus_bus" depart="526.16" departLane="best" from="240164148#1" to="-305176902#0"/>
    <trip id="bus85" type="bus_bus" depart="532.43" departLane="best" departSpeed="max" from="-390526209" to="342138970#0"/>
    <trip id="bus87" type="bus_bus" depart="544.96" departLane="best" departSpeed="max" from="-197203441" to="543417446"/>
    <trip id="bus89" type="bus_bus" depart="557.48" departLane="best" from="-659429371#1" to="-199341700#5"/>
    <trip id="bus90" type="bus_bus" depart="563.75" departLane="best" departSpeed="max" from="390523327" to="305176888#0"/>
    <trip id="bus92" type="bus_bus" depart="576.27" departLane="best" departSpeed="max" from="200621109#0" to="-184515330#1"/>
    <trip id="bus93" type="bus_bus" depart="582.54" departLane="best" from="-372770595" to="-363055806"/>
    <trip id="bus94" type="bus_bus" depart="588.80" departLane="best" from="231532891" to="699104405"/>
    <trip id="bus95" type="bus_bus" depart="595.07" departLane="best" departSpeed="max" from="-342138970#1" to="240164148#0"/>
    <trip id="bus96" type="bus_bus" depart="601.33" departLane="best" from="199341720#0" to="-305176890#1"/>
    <trip id="bus97" type="bus_bus" depart="607.59" departLane="best" departSpeed="max" from="193302931" to="539264863#0"/>
    <trip id="bus98" type="bus_bus" depart="613.86" departLane="best" from="390564832#0" to="-197203418"/>
    <trip id="bus100" type="bus_bus" depart="626.39" departLane="best" from="-199341732#0" to="-305176888#1"/>
    <trip id="bus101" type="bus_bus" depart="632.65" departLane="best" departSpeed="max" from="301511503" to="199341698"/>
    <trip id="bus102" type="bus_bus" depart="638.91" departLane="best" departSpeed="max" from="-197203441" to="260136266#4"/>
    <trip id="bus103" type="bus_bus" depart="645.18" departLane="best" from="539264849#0" to="-199341686#3"/>
    <trip id="bus104" type="bus_bus" depart="651.44" departLane="best" departSpeed="max" from="390523327" to="199880990"/>
    <trip id="bus105" type="bus_bus" depart="657.70" departLane="best" from="539540914#0" to="-240164157"/>
    <trip id="bus106" type="bus_bus" depart="663.97" departLane="best" from="305176897#1" to="539264849#0"/>
    <trip id="bus107" type="bus_bus" depart="670.23" departLane="best" from="184515323#0" to="240164164#3"/>
    <trip id="bus109" type="bus_bus" depart="682.76" departLane="best" from="-457948144" to="910969946"/>
    <trip id="bus110" type="bus_bus" depart="689.02" departLane="best" departSpeed="max" from="363199286" to="534715113"/>
    <trip id="bus111" type="bus_bus" depart="695.29" departLane="best" from="341485107#1" to="-49793790#3"/>
    <trip id="bus112" type="bus_bus" depart="701.55" departLane="best" departSpeed="max" from="363199286" to="305176892"/>
    <trip id="bus113" type="bus_bus" depart="707.82" departLane="best" from="-305135156" to="390526209"/>
    <trip id="bus114" type="bus_bus" depart="714.08" departLane="best" departSpeed="max" from="193065698" to="390517208#0"/>
    <trip id="bus115" type="bus_bus" depart="720.34" departLane="best" from="390564832#0" to="-259692596#0"/>
    <trip id="bus116" type="bus_bus" depart="726.61" departLane="best" departSpeed="max" from="-390529700#1" to="-49793790#3"/>
    <trip id="bus117" type="bus_bus" depart="732.87" departLane="best" from="822002096#0" to="-305176897#0"/>
    <trip id="bus118" type="bus_bus" depart="739.13" departLane="best" departSpeed="max" from="912237642" to="199341680#4"/>
    <trip id="bus120" type="bus_bus" depart="751.66" departLane="best" from="699104406#2" to="-305176891"/>
    <trip id="bus121" type="bus_bus" depart="757.93" departLane="best" from="-199341680#2" to="-193131675#2"/>
    <trip id="bus122" type="bus_bus" depart="764.19" departLane="best" departSpeed="max" from="286673108" to="390523329"/>
    <trip id="bus123" type="bus_bus" depart="770.45" departLane="best" departSpeed="max" from="-982218660#1" to="199880987"/>
    <trip id="bus124" type="bus_bus" depart="776.72" departLane="best" departSpeed="max" from="-327086081" to="305176890#0"/>
    <trip id="bus126" type="bus_bus" depart="789.25" departLane="best" from="231972352" to="390566189#2"/>
    <trip id="bus127" type="bus_bus" depart="795.51" departLane="best" departSpeed="max" from="-390526209" to="-390564847#0"/>
    <trip id="bus128" type="bus_bus" depart="801.77" departLane="best" from="-260136265#1" to="-367452604#0"/>
    <trip id="bus129" type="bus_bus" depart="808.04" departLane="best" departSpeed="max" from="-390526209" to="184515335#3"/>
    <trip id="bus130" type="bus_bus" depart="814.30" departLane="best" departSpeed="max" from="-199341698" to="191714267"/>
    <trip id="bus132" type="bus_bus" depart="826.83" departLane="best" from="301511502" to="240164152#0"/>
    <trip id="bus133" type="bus_bus" depart="833.09" departLane="best" departSpeed="max" from="-381445966#1" to="199341692#1"/>
    <trip id="bus134" type="bus_bus" depart="839.36" departLane="best" from="184515852#2" to="543417446"/>
    <trip id="bus135" type="bus_bus" depart="845.62" departLane="best" from="390517208#0" to="342138970#0"/>
    <trip id="bus136" type="bus_bus" depart="851.88" departLane="best" from="-259692596#2" to="-184515335#2"/>
    <trip id="bus137" type="bus_bus" depart="858.15" departLane="best" from="305176900#0" to="-194338161#1"/>
    <trip id="bus138" type="bus_bus" depart="864.41" departLane="best" from="-390564841#2" to="-194338158#0"/>
    <trip id="bus139" type="bus_bus" depart="870.68" departLane="best" from="-259431917#1" to="305135146#0"/>
    <trip id="bus140" type="bus_bus" depart="876.94" departLane="best" from="193309350#1" to="-301511503"/>
    <trip id="bus141" type="bus_bus" depart="883.20" departLane="best" departSpeed="max" from="200621109#0" to="-184515327#3"/>
    <trip id="bus143" type="bus_bus" depart="895.73" departLane="best" from="-240164166" to="822002096#0"/>
    <trip id="bus144" type="bus_bus" depart="902.00" departLane="best" from="194338160#0" to="-193302931"/>
    <trip id="bus145" type="bus_bus" depart="908.26" departLane="best" departSpeed="max" from="193065698" to="390523331"/>
    <trip id="bus146" type="bus_bus" depart="914.52" departLane="best" from="-260136265#0" to="199341664#1"/>
    <trip id="bus147" type="bus_bus" depart="920.79" departLane="best" departSpeed="max" from="390523327" to="-199341692#1"/>
    <trip id="bus149" type="bus_bus" depart="933.31" departLane="best" from="193131675#2" to="305176888#0"/>
    <trip id="bus150" type="bus_bus" depart="939.58" departLane="best" from="305176902#6" to="256890173"/>
    <trip id="bus151" type="bus_bus" depart="945.84" departLane="best" from="305176891" to="199341673"/>
    <trip id="bus152" type="bus_bus" depart="952.11" departLane="best" from="199341713" to="-305176897#0"/>
    <trip id="bus153" type="bus_bus" depart="958.37" departLane="best" departSpeed="max" from="-197203441" to="-305176902#0"/>
    <trip id="bus154" type="bus_bus" depart="964.63" departLane="best" departSpeed="max" from="-342138970#1" to="-390527145#2"/>
    <trip id="bus155" type="bus_bus" depart="970.90" departLane="best" from="305176891" to="305135146#0"/>
    <trip id="bus156" type="bus_bus" depart="977.16" departLane="best" departSpeed="max" from="259692060" to="-194338155"/>
    <trip id="bus157" type="bus_bus" depart="983.43" departLane="best" from="184515323#4" to="199341686#1"/>
    <trip id="bus158" type="bus_bus" depart="989.69" departLane="best" from="184515327#2" to="-240164157"/>
    <trip id="bus159" type="bus_bus" depart="995.95" departLane="best" departSpeed="max" from="184515332#0" to="539264863#0"/>
    <trip id="bus160" type="bus_bus" depart="1002.22" departLane="best" from="199341689" to="305135146#0"/>
    <trip id="bus161" type="bus_bus" depart="1008.48" departLane="best" from="390566190" to="360926608#0"/>
    <trip id="bus162" type="bus_bus" depart="1014.74" departLane="best" from="-699104407" to="-184515330#0"/>
    <trip id="bus163" type="bus_bus" depart="1021.01" departLane="best" from="49793790#0" to="342138970#0"/>
    <trip id="bus164" type="bus_bus" depart="1027.27" departLane="best" from="390566189#0" to="699104408"/>
    <trip id="bus166" type="bus_bus" depart="1039.80" departLane="best" from="199341666#1" to="-240164146#2"/>
    <trip id="bus167" type="bus_bus" depart="1046.06" departLane="best" from="-305135153#0" to="-259431917#0"/>
    <trip id="bus168" type="bus_bus" depart="1052.33" departLane="best" from="184515335#3" to="184515852#1"/>
    <trip id="bus169" type="bus_bus" depart="1058.59" departLane="best" from="191714268#2" to="301511499"/>
    <trip id="bus170" type="bus_bus" depart="1064.86" departLane="best" departSpeed="max" from="162070715" to="-199341711#0"/>
    <trip id="bus171" type="bus_bus" depart="1071.12" departLane="best" departSpeed="max" from="193131674#0" to="-199341680#0"/>
    <trip id="bus172" type="bus_bus" depart="1077.38" departLane="best" from="-199341711#4" to="-184515852#0"/>
    <trip id="bus173" type="bus_bus" depart="1083.65" departLane="best" from="1076656333#0" to="199341711#5"/>
    <trip id="bus174" type="bus_bus" depart="1089.91" departLane="best" from="193131675#1" to="256890173"/>
    <trip id="bus176" type="bus_bus" depart="1102.44" departLane="best" departSpeed="max" from="-301511505" to="-390564847#1"/>
    <trip id="bus178" type="bus_bus" depart="1114.97" departLane="best" departSpeed="max" from="305172077" to="390529699"/>
    <trip id="bus179" type="bus_bus" depart="1121.23" departLane="best" from="184515852#0" to="199341684"/>
    <trip id="bus180" type="bus_bus" depart="1127.49" departLane="best" from="990174281" to="-657329569#1"/>
    <trip id="bus181" type="bus_bus" depart="1133.76" departLane="best" departSpeed="max" from="200621109#0" to="367452604#1"/>
    <trip id="bus182" type="bus_bus" depart="1140.02" departLane="best" departSpeed="max" from="658557319" to="-240164146#0"/>
    <trip id="bus183" type="bus_bus" depart="1146.29" departLane="best" from="184515852#1" to="-199341700#0"/>
    <trip id="bus185" type="bus_bus" depart="1158.81" departLane="best" from="-699104409" to="-199341666#4"/>
    <trip id="bus186" type="bus_bus" depart="1165.08" departLane="best" from="-305135153#0" to="910969925"/>
    <trip id="bus187" type="bus_bus" depart="1171.34" departLane="best" from="-199341677#1" to="-184515335#3"/>
    <trip id="bus188" type="bus_bus" depart="1177.60" departLane="best" departSpeed="max" from="-390526209" to="301511499"/>
    <trip id="bus189" type="bus_bus" depart="1183.87" departLane="best" departSpeed="max" from="699104406#0" to="184515330#0"/>
    <trip id="bus190" type="bus_bus" depart="1190.13" departLane="best" departSpeed="max" from="259692596#0" to="-194338158#1"/>
    <trip id="bus191" type="bus_bus" depart="1196.40" departLane="best" from="-259431917#1" to="240164168#0"/>
    <trip id="bus193" type="bus_bus" depart="1208.92" departLane="best" from="-390564841#2" to="-240164146#0"/>
    <trip id="bus194" type="bus_bus" depart="1215.19" departLane="best" from="-199341686#1" to="981022850#0"/>
    <trip id="bus195" type="bus_bus" depart="1221.45" departLane="best" from="305176900#0" to="-657329569#1"/>
    <trip id="bus196" type="bus_bus" depart="1227.72" departLane="best" from="184515334#0" to="-699104406#1"/>
    <trip id="bus197" type="bus_bus" depart="1233.98" departLane="best" departSpeed="max" from="194338158#0" to="-50301278#2"/>
    <trip id="bus198" type="bus_bus" depart="1240.24" departLane="best" from="390564841#0" to="390527141"/>
    <trip id="bus200" type="bus_bus" depart="1252.77" departLane="best" from="259692595" to="193131676#0"/>
    <trip id="bus201" type="bus_bus" depart="1259.03" departLane="best" from="301511496#0" to="910969926"/>
    <trip id="bus202" type="bus_bus" depart="1265.30" departLane="best" departSpeed="max" from="341485109#0" to="390523337#1"/>
    <trip id="bus203" type="bus_bus" depart="1271.56" departLane="best" from="199341664#0" to="197203441"/>
    <trip id="bus204" type="bus_bus" depart="1277.83" departLane="best" departSpeed="max" from="341485109#0" to="-390566189#3"/>
    <trip id="bus205" type="bus_bus" depart="1284.09" departLane="best" departSpeed="max" from="390523327" to="-194338161#0"/>
    <trip id="bus206" type="bus_bus" depart="1290.35" departLane="best" from="50301278#2" to="-301511503"/>
    <trip id="bus207" type="bus_bus" depart="1296.62" departLane="best" departSpeed="max" from="193131674#0" to="240164150"/>
    <trip id="bus208" type="bus_bus" depart="1302.88" departLane="best" from="-699104406#4" to="184515852#1"/>
    <trip id="bus209" type="bus_bus" depart="1309.15" departLane="best" from="390564847#0" to="199341727"/>
    <trip id="bus211" type="bus_bus" depart="1321.67" departLane="best" departSpeed="max" from="259692060" to="-305176897#0"/>
    <trip id="bus212" type="bus_bus" depart="1327.94" departLane="best" from="184515334#0" to="699104407"/>
    <trip id="bus213" type="bus_bus" depart="1334.20" departLane="best" departSpeed="max" from="193302931" to="350463977#0"/>
    <trip id="bus215" type="bus_bus" depart="1346.73" departLane="best" departSpeed="max" from="193302931" to="390517208#0"/>
    <trip id="bus216" type="bus_bus" depart="1352.99" departLane="best" from="-259431917#2" to="-390523327"/>
    <trip id="bus217" type="bus_bus" depart="1359.26" departLane="best" from="-305068793#2" to="-390566190"/>
    <trip id="bus218" type="bus_bus" depart="1365.52" departLane="best" departSpeed="max" from="259692060" to="-305176896"/>
    <trip id="bus219" type="bus_bus" depart="1371.78" departLane="best" from="-199341662#1" to="350463977#0"/>
    <trip id="bus220" type="bus_bus" depart="1378.05" departLane="best" departSpeed="max" from="-240164170#2" to="-240164166"/>
    <trip id="bus221" type="bus_bus" depart="1384.31" departLane="best" from="193133897#0" to="-305176902#5"/>
    <trip id="bus222" type="bus_bus" depart="1390.58" departLane="best" departSpeed="max" from="-350463977#4" to="-199341660#2"/>
    <trip id="bus223" type="bus_bus" depart="1396.84" departLane="best" from="199341660#1" to="-305176897#0"/>
    <trip id="bus225" type="bus_bus" depart="1409.37" departLane="best" departSpeed="max" from="49732813#0" to="-199341658"/>
    <trip id="bus226" type="bus_bus" depart="1415.63" departLane="best" from="49732813#2" to="199341735"/>
    <trip id="bus228" type="bus_bus" depart="1428.16" departLane="best" from="390523320#1" to="-184515334#0"/>
    <trip id="bus229" type="bus_bus" depart="1434.42" departLane="best" departSpeed="max" from="-197203441" to="240164168#0"/>
    <trip id="bus230" type="bus_bus" depart="1440.69" departLane="best" from="199341677#0" to="-372770595"/>
    <trip id="bus231" type="bus_bus" depart="1446.95" departLane="best" from="986044147" to="-199341668#2"/>
    <trip id="bus232" type="bus_bus" depart="1453.21" departLane="best" from="305176904" to="-259692596#0"/>
    <trip id="bus233" type="bus_bus" depart="1459.48" departLane="best" from="194338161#1" to="193391675"/>
    <trip id="bus234" type="bus_bus" depart="1465.74" departLane="best" from="981022850#0" to="-390517208#0"/>
    <trip id="bus235" type="bus_bus" depart="1472.01" departLane="best" departSpeed="max" from="301511503" to="699104406#2"/>
    <trip id="bus236" type="bus_bus" depart="1478.27" departLane="best" departSpeed="max" from="-260136265#3" to="-240164157"/>
    <trip id="bus237" type="bus_bus" depart="1484.53" departLane="best" from="-231532890#1" to="-199341700#0"/>
    <trip id="bus238" type="bus_bus" depart="1490.80" departLane="best" from="184515324#1" to="193391675"/>
    <trip id="bus239" type="bus_bus" depart="1497.06" departLane="best" departSpeed="max" from="259692060" to="194338156"/>
    <trip id="bus240" type="bus_bus" depart="1503.33" departLane="best" from="-231532890#3" to="658557317#0"/>
    <trip id="bus241" type="bus_bus" depart="1509.59" departLane="best" departSpeed="max" from="184515332#0" to="199341686#3"/>
    <trip id="bus242" type="bus_bus" depart="1515.85" departLane="best" from="390523325#1" to="-194338158#0"/>
    <trip id="bus243" type="bus_bus" depart="1522.12" departLane="best" departSpeed="max" from="-240164150" to="-390523327"/>
    <trip id="bus244" type="bus_bus" depart="1528.38" departLane="best" from="-699104409" to="199341723"/>
    <trip id="bus245" type="bus_bus" depart="1534.64" departLane="best" departSpeed="max" from="-367452604#1" to="-199341677#1"/>
    <trip id="bus246" type="bus_bus" depart="1540.91" departLane="best" from="259225198" to="305135153#1"/>
    <trip id="bus247" type="bus_bus" depart="1547.17" departLane="best" from="658557317#0" to="199341664#1"/>
    <trip id="bus248" type="bus_bus" depart="1553.44" departLane="best" departSpeed="max" from="193302931" to="-194338159#2"/>
    <trip id="bus249" type="bus_bus" depart="1559.70" departLane="best" departSpeed="max" from="-390529699" to="-305172100"/>
    <trip id="bus251" type="bus_bus" depart="1572.23" departLane="best" from="-390523329" to="199880987"/>
    <trip id="bus252" type="bus_bus" depart="1578.49" departLane="best" from="658557324" to="990174281"/>
    <trip id="bus253" type="bus_bus" depart="1584.76" departLane="best" from="193309350#1" to="342138970#0"/>
    <trip id="bus254" type="bus_bus" depart="1591.02" departLane="best" from="193131674#2" to="-259692596#1"/>
    <trip id="bus255" type="bus_bus" depart="1597.28" departLane="best" from="199341689" to="240164170#0"/>
    <trip id="bus256" type="bus_bus" depart="1603.55" departLane="best" departSpeed="max" from="193302931" to="-197203394#2"/>
    <trip id="bus258" type="bus_bus" depart="1616.07" departLane="best" departSpeed="max" from="-390529700#1" to="305135146#0"/>
    <trip id="bus259" type="bus_bus" depart="1622.34" departLane="best" departSpeed="max" from="-367452604#1" to="699104405"/>
    <trip id="bus260" type="bus_bus" depart="1628.60" departLane="best" departSpeed="max" from="363199286" to="199341695"/>
    <trip id="bus261" type="bus_bus" depart="1634.87" departLane="best" departSpeed="max" from="193065698" to="390523331"/>
    <trip id="bus262" type="bus_bus" depart="1641.13" departLane="best" departSpeed="max" from="-390529699" to="910969929"/>
    <trip id="bus263" type="bus_bus" depart="1647.39" departLane="best" departSpeed="max" from="162070715" to="-199341668#3"/>
    <trip id="bus264" type="bus_bus" depart="1653.66" departLane="best" departSpeed="max" from="199341666#0" to="-184515852#0"/>
    <trip id="bus265" type="bus_bus" depart="1659.92" departLane="best" departSpeed="max" from="-240164170#2" to="659413628"/>
    <trip id="bus266" type="bus_bus" depart="1666.19" departLane="best" from="-305176888#0" to="-240164152#0"/>
    <trip id="bus268" type="bus_bus" depart="1678.71" departLane="best" from="-199341686#2" to="910969929"/>
    <trip id="bus269" type="bus_bus" depart="1684.98" departLane="best" departSpeed="max" from="199341703" to="-301511503"/>
    <trip id="bus270" type="bus_bus" depart="1691.24" departLane="best" from="-199341668#2" to="197203429#0"/>
    <trip id="bus271" type="bus_bus" depart="1697.50" departLane="best" from="341485107#0" to="543417461"/>