<?xml version="1.0" encoding="UTF-8"?>

<!-- generated on 2024-09-16 21:16:01.980129 by osmWebWizard.py v1_20_0+0002-343658e7c64
<configuration>
    <net-file value="C:\Users\laboratorio\Sumo\2024-09-16-21-15-53\osm.net.xml.gz"/>
    <output-trip-file value="C:\Users\laboratorio\Sumo\2024-09-16-21-15-53\osm.motorcycle.trips.xml"/>
    <route-file value="C:\Users\laboratorio\Sumo\2024-09-16-21-15-53\osm.motorcycle.rou.xml"/>
    <prefix value="motorcycle"/>
    <trip-attributes value="departLane=&quot;best&quot;"/>
    <fringe-start-attributes value="departSpeed=&quot;max&quot;"/>
    <vehicle-class value="motorcycle"/>
    <fringe-factor value="2"/>
    <vclass value="motorcycle"/>
    <via-edge-types value="highway.motorway,highway.motorway_link,highway.trunk_link,highway.primary_link,highway.secondary_link,highway.tertiary_link"/>
    <max-distance value="1200.0"/>
    <remove-loops value="True"/>
    <validate value="True"/>
    <insertion-density value="20.0"/>
</configuration>
-->

<!-- generated on 2024-09-16 21:16:01 by Eclipse SUMO duarouter Version 1.20.0
<configuration xmlns:xsi="http://www.w3.org/2001/XMLSchema-instance" xsi:noNamespaceSchemaLocation="http://sumo.dlr.de/xsd/duarouterConfiguration.xsd">

    <input>
        <net-file value="C:\Users\laboratorio\Sumo\2024-09-16-21-15-53\osm.net.xml.gz"/>
        <route-files value="C:\Users\laboratorio\Sumo\2024-09-16-21-15-53\osm.motorcycle.trips.xml"/>
    </input>

    <output>
        <output-file value="C:\Users\laboratorio\Sumo\2024-09-16-21-15-53\osm.motorcycle.trips.xml.tmp"/>
        <alternatives-output value="NUL"/>
        <write-trips value="true"/>
    </output>

    <processing>
        <remove-loops value="true"/>
    </processing>

    <time>
        <begin value="0.0"/>
        <end value="3600.0"/>
    </time>

    <report>
        <no-warnings value="true"/>
        <ignore-errors value="true"/>
        <no-step-log value="true"/>
    </report>

</configuration>
-->

<routes xmlns:xsi="http://www.w3.org/2001/XMLSchema-instance" xsi:noNamespaceSchemaLocation="http://sumo.dlr.de/xsd/routes_file.xsd">
    <vType id="motorcycle_motorcycle" vClass="motorcycle"/>
    <trip id="motorcycle0" type="motorcycle_motorcycle" depart="0.00" departLane="best" from="341485107#1" to="-259692596#1"/>
    <trip id="motorcycle1" type="motorcycle_motorcycle" depart="3.13" departLane="best" from="539264849#0" to="-194338161#1"/>
    <trip id="motorcycle2" type="motorcycle_motorcycle" depart="6.26" departLane="best" from="184515334#0" to="-184515852#0"/>
    <trip id="motorcycle3" type="motorcycle_motorcycle" depart="9.40" departLane="best" departSpeed="max" from="-301511505" to="197203441"/>
    <trip id="motorcycle4" type="motorcycle_motorcycle" depart="12.53" departLane="best" from="184515852#1" to="-240164152#0"/>
    <trip id="motorcycle5" type="motorcycle_motorcycle" depart="15.66" departLane="best" from="-231532890#1" to="199341675"/>
    <trip id="motorcycle6" type="motorcycle_motorcycle" depart="18.79" departLane="best" departSpeed="max" from="-301511505" to="199341711#9"/>
    <trip id="motorcycle7" type="motorcycle_motorcycle" depart="21.92" departLane="best" from="-390517208#0" to="-184515327#3"/>
    <trip id="motorcycle8" type="motorcycle_motorcycle" depart="25.06" departLane="best" from="-390566190" to="-199341700#5"/>
    <trip id="motorcycle9" type="motorcycle_motorcycle" depart="28.19" departLane="best" from="699104407" to="-390999304#1"/>
    <trip id="motorcycle10" type="motorcycle_motorcycle" depart="31.32" departLane="best" from="-199341660#0" to="197203429#1"/>
    <trip id="motorcycle11" type="motorcycle_motorcycle" depart="34.45" departLane="best" from="390564847#0" to="199880987"/>
    <trip id="motorcycle12" type="motorcycle_motorcycle" depart="37.58" departLane="best" from="-372770595" to="305176896"/>
    <trip id="motorcycle13" type="motorcycle_motorcycle" depart="40.72" departLane="best" from="-199341662#1" to="910969929"/>
    <trip id="motorcycle14" type="motorcycle_motorcycle" depart="43.85" departLane="best" from="-699104409" to="199341680#3"/>
    <trip id="motorcycle15" type="motorcycle_motorcycle" depart="46.98" departLane="best" from="-390523331" to="-231532890#3"/>
    <trip id="motorcycle16" type="motorcycle_motorcycle" depart="50.11" departLane="best" from="-260136265#0" to="193131675#1"/>
    <trip id="motorcycle17" type="motorcycle_motorcycle" depart="53.24" departLane="best" from="-305135156" to="327086016"/>
    <trip id="motorcycle18" type="motorcycle_motorcycle" depart="56.37" departLane="best" from="-197203418" to="-301511503"/>
    <trip id="motorcycle19" type="motorcycle_motorcycle" depart="59.51" departLane="best" departSpeed="max" from="-199341664#1" to="-305176902#0"/>
    <trip id="motorcycle20" type="motorcycle_motorcycle" depart="62.64" departLane="best" from="199341671#0" to="-699104404"/>
    <trip id="motorcycle21" type="motorcycle_motorcycle" depart="65.77" departLane="best" departSpeed="max" from="-699104405" to="240164166"/>
    <trip id="motorcycle22" type="motorcycle_motorcycle" depart="68.90" departLane="best" from="327086015#0" to="658557317#0"/>
    <trip id="motorcycle23" type="motorcycle_motorcycle" depart="72.03" departLane="best" from="-231288092#1" to="-225971206"/>
    <trip id="motorcycle24" type="motorcycle_motorcycle" depart="75.17" departLane="best" from="240164146#0" to="305176896"/>
    <trip id="motorcycle25" type="motorcycle_motorcycle" depart="78.30" departLane="best" from="231288092#0" to="1076656333#0"/>
    <trip id="motorcycle26" type="motorcycle_motorcycle" depart="81.43" departLane="best" from="341485107#0" to="240164154#0"/>
    <trip id="motorcycle27" type="motorcycle_motorcycle" depart="84.56" departLane="best" from="199341671#0" to="260136266#4"/>
    <trip id="motorcycle28" type="motorcycle_motorcycle" depart="87.69" departLane="best" from="390564839" to="360926608#0"/>
    <trip id="motorcycle29" type="motorcycle_motorcycle" depart="90.83" departLane="best" from="-305135156" to="184515852#1"/>
    <trip id="motorcycle30" type="motorcycle_motorcycle" depart="93.96" departLane="best" from="-390527145#1" to="-305176897#0"/>
    <trip id="motorcycle31" type="motorcycle_motorcycle" depart="97.09" departLane="best" from="-260136265#1" to="699104405"/>
    <trip id="motorcycle32" type="motorcycle_motorcycle" depart="100.22" departLane="best" from="231972352" to="-184515324#2"/>
    <trip id="motorcycle33" type="motorcycle_motorcycle" depart="103.35" departLane="best" departSpeed="max" from="539540913#0" to="193133897#1"/>
    <trip id="motorcycle34" type="motorcycle_motorcycle" depart="106.49" departLane="best" from="-305176904" to="-305172100"/>
    <trip id="motorcycle35" type="motorcycle_motorcycle" depart="109.62" departLane="best" from="199341671#2" to="-305176895#1"/>
    <trip id="motorcycle36" type="motorcycle_motorcycle" depart="112.75" departLane="best" from="-199341686#1" to="539264853"/>
    <trip id="motorcycle37" type="motorcycle_motorcycle" depart="115.88" departLane="best" from="184515323#0" to="-259692596#0"/>
    <trip id="motorcycle38" type="motorcycle_motorcycle" depart="119.01" departLane="best" from="988149831" to="-199341658"/>
    <trip id="motorcycle39" type="motorcycle_motorcycle" depart="122.15" departLane="best" from="-199341668#0" to="-240164146#2"/>
    <trip id="motorcycle40" type="motorcycle_motorcycle" depart="125.28" departLane="best" from="194338159#1" to="539264862#0"/>
    <trip id="motorcycle41" type="motorcycle_motorcycle" depart="128.41" departLane="best" from="986044147" to="199341668#1"/>
    <trip id="motorcycle42" type="motorcycle_motorcycle" depart="131.54" departLane="best" from="-184515332#3" to="305176891"/>
    <trip id="motorcycle43" type="motorcycle_motorcycle" depart="134.67" departLane="best" from="240164166" to="199341671#0"/>
    <trip id="motorcycle44" type="motorcycle_motorcycle" depart="137.80" departLane="best" from="-327086015#1" to="240164154#0"/>
    <trip id="motorcycle45" type="motorcycle_motorcycle" depart="140.94" departLane="best" from="-199341668#1" to="191714263#0"/>
    <trip id="motorcycle46" type="motorcycle_motorcycle" depart="144.07" departLane="best" from="191714268#1" to="699104408"/>
    <trip id="motorcycle47" type="motorcycle_motorcycle" depart="147.20" departLane="best" from="50012068" to="305176895#0"/>
    <trip id="motorcycle48" type="motorcycle_motorcycle" depart="150.33" departLane="best" departSpeed="max" from="194338158#0" to="-199880991"/>
    <trip id="motorcycle49" type="motorcycle_motorcycle" depart="153.46" departLane="best" from="-372770595" to="240164152#1"/>
    <trip id="motorcycle50" type="motorcycle_motorcycle" depart="156.60" departLane="best" departSpeed="max" from="199341703" to="-199341700#0"/>
    <trip id="motorcycle51" type="motorcycle_motorcycle" depart="159.73" departLane="best" departSpeed="max" from="305176897#0" to="199341671#1"/>
    <trip id="motorcycle52" type="motorcycle_motorcycle" depart="162.86" departLane="best" from="305176904" to="199341668#1"/>
    <trip id="motorcycle53" type="motorcycle_motorcycle" depart="165.99" departLane="best" from="-184515324#0" to="-390564847#0"/>
    <trip id="motorcycle54" type="motorcycle_motorcycle" depart="169.12" departLane="best" from="50301278#0" to="390529699"/>
    <trip id="motorcycle55" type="motorcycle_motorcycle" depart="172.26" departLane="best" departSpeed="max" from="-197203441" to="-194338159#3"/>
    <trip id="motorcycle56" type="motorcycle_motorcycle" depart="175.39" departLane="best" from="305176899#0" to="-199341677#1"/>
    <trip id="motorcycle57" type="motorcycle_motorcycle" depart="178.52" departLane="best" from="-305176904" to="-50301278#0"/>
    <trip id="motorcycle59" type="motorcycle_motorcycle" depart="184.78" departLane="best" from="199341664#0" to="305176897#1"/>
    <trip id="motorcycle60" type="motorcycle_motorcycle" depart="187.92" departLane="best" from="-259431917#1" to="390523331"/>
    <trip id="motorcycle61" type="motorcycle_motorcycle" depart="191.05" departLane="best" from="986044147" to="240164168#0"/>
    <trip id="motorcycle62" type="motorcycle_motorcycle" depart="194.18" departLane="best" from="184515852#1" to="199341664#0"/>
    <trip id="motorcycle63" type="motorcycle_motorcycle" depart="197.31" departLane="best" from="-199341677#1" to="-259692596#2"/>
    <trip id="motorcycle64" type="motorcycle_motorcycle" depart="200.44" departLane="best" from="390566189#2" to="199341711#9"/>
    <trip id="motorcycle65" type="motorcycle_motorcycle" depart="203.58" departLane="best" from="-305176887" to="-259692596#0"/>
    <trip id="motorcycle66" type="motorcycle_motorcycle" depart="206.71" departLane="best" from="194338160#3" to="240164148#1"/>
    <trip id="motorcycle67" type="motorcycle_motorcycle" depart="209.84" departLane="best" from="259692595" to="539264858#7"/>
    <trip id="motorcycle68" type="motorcycle_motorcycle" depart="212.97" departLane="best" from="305176890#0" to="259692596#2"/>
    <trip id="motorcycle69" type="motorcycle_motorcycle" depart="216.10" departLane="best" departSpeed="max" from="-260136265#3" to="-199341680#0"/>
    <trip id="motorcycle70" type="motorcycle_motorcycle" depart="219.23" departLane="best" departSpeed="max" from="657329569#0" to="-199341692#1"/>
    <trip id="motorcycle71" type="motorcycle_motorcycle" depart="222.37" departLane="best" from="-372770595" to="231532890#2"/>
    <trip id="motorcycle72" type="motorcycle_motorcycle" depart="225.50" departLane="best" from="-199341662#1" to="191714267"/>
    <trip id="motorcycle73" type="motorcycle_motorcycle" depart="228.63" departLane="best" from="184515334#1" to="193391675"/>
    <trip id="motorcycle74" type="motorcycle_motorcycle" depart="231.76" departLane="best" departSpeed="max" from="301511503" to="260136265#1"/>
    <trip id="motorcycle76" type="motorcycle_motorcycle" depart="238.03" departLane="best" departSpeed="max" from="-240164168#1" to="193131675#1"/>
    <trip id="motorcycle77" type="motorcycle_motorcycle" depart="241.16" departLane="best" from="184515334#0" to="-305176902#0"/>
    <trip id="motorcycle78" type="motorcycle_motorcycle" depart="244.29" departLane="best" from="199341668#1" to="-193134171"/>
    <trip id="motorcycle79" type="motorcycle_motorcycle" depart="247.42" departLane="best" from="390564847#1" to="-199341711#4"/>
    <trip id="motorcycle80" type="motorcycle_motorcycle" depart="250.55" departLane="best" departSpeed="max" from="193302931" to="327086015#2"/>
    <trip id="motorcycle81" type="motorcycle_motorcycle" depart="253.69" departLane="best" from="184515323#4" to="-193309350#0"/>
    <trip id="motorcycle82" type="motorcycle_motorcycle" depart="256.82" departLane="best" departSpeed="max" from="-982218660#1" to="982218660#0"/>
    <trip id="motorcycle83" type="motorcycle_motorcycle" depart="259.95" departLane="best" from="-327086015#1" to="367452604#1"/>
    <trip id="motorcycle84" type="motorcycle_motorcycle" depart="263.08" departLane="best" from="191714268#2" to="-184515852#0"/>
    <trip id="motorcycle86" type="motorcycle_motorcycle" depart="269.35" departLane="best" from="199341669#0" to="-305176890#1"/>
    <trip id="motorcycle87" type="motorcycle_motorcycle" depart="272.48" departLane="best" from="199341727" to="-363055806"/>
    <trip id="motorcycle88" type="motorcycle_motorcycle" depart="275.61" departLane="best" from="910969925" to="199341700#1"/>
    <trip id="motorcycle89" type="motorcycle_motorcycle" depart="278.74" departLane="best" departSpeed="max" from="199341666#0" to="307900764"/>
    <trip id="motorcycle90" type="motorcycle_motorcycle" depart="281.87" departLane="best" departSpeed="max" from="-194338158#2" to="199341708#0"/>
    <trip id="motorcycle91" type="motorcycle_motorcycle" depart="285.01" departLane="best" from="194338158#1" to="390566190"/>
    <trip id="motorcycle92" type="motorcycle_motorcycle" depart="288.14" departLane="best" from="-197203418" to="-231288092#1"/>
    <trip id="motorcycle93" type="motorcycle_motorcycle" depart="291.27" departLane="best" from="199341692#1" to="260136265#2"/>
    <trip id="motorcycle94" type="motorcycle_motorcycle" depart="294.40" departLane="best" from="-305176889#3" to="-199341668#1"/>
    <trip id="motorcycle95" type="motorcycle_motorcycle" depart="297.53" departLane="best" from="534715114" to="-305172100"/>
    <trip id="motorcycle96" type="motorcycle_motorcycle" depart="300.67" departLane="best" departSpeed="max" from="199341692#0" to="231532891"/>
    <trip id="motorcycle97" type="motorcycle_motorcycle" depart="303.80" departLane="best" from="184515332#1" to="199341708#0"/>
    <trip id="motorcycle98" type="motorcycle_motorcycle" depart="306.93" departLane="best" from="-259431917#2" to="-305176888#1"/>
    <trip id="motorcycle99" type="motorcycle_motorcycle" depart="310.06" departLane="best" from="-305176891" to="-184515324#2"/>
    <trip id="motorcycle100" type="motorcycle_motorcycle" depart="313.19" departLane="best" from="240164154#0" to="-372770594"/>
    <trip id="motorcycle101" type="motorcycle_motorcycle" depart="316.32" departLane="best" from="-390527145#1" to="307900766"/>
    <trip id="motorcycle102" type="motorcycle_motorcycle" depart="319.46" departLane="best" from="194338161#0" to="193133897#1"/>
    <trip id="motorcycle103" type="motorcycle_motorcycle" depart="322.59" departLane="best" from="194338161#0" to="327086015#2"/>
    <trip id="motorcycle104" type="motorcycle_motorcycle" depart="325.72" departLane="best" from="327086015#0" to="658557314"/>
    <trip id="motorcycle105" type="motorcycle_motorcycle" depart="328.85" departLane="best" from="50301278#2" to="-193309350#0"/>
    <trip id="motorcycle106" type="motorcycle_motorcycle" depart="331.98" departLane="best" departSpeed="max" from="-699104405" to="-199341700#8"/>
    <trip id="motorcycle107" type="motorcycle_motorcycle" depart="335.12" departLane="best" from="-390527143" to="305135146#0"/>
    <trip id="motorcycle109" type="motorcycle_motorcycle" depart="341.38" departLane="best" from="231532891" to="-184515330#0"/>
    <trip id="motorcycle110" type="motorcycle_motorcycle" depart="344.51" departLane="best" from="240164148#0" to="659413628"/>
    <trip id="motorcycle111" type="motorcycle_motorcycle" depart="347.64" departLane="best" from="-199341686#2" to="-199341666#4"/>
    <trip id="motorcycle112" type="motorcycle_motorcycle" depart="350.78" departLane="best" from="-199341666#4" to="199341680#3"/>
    <trip id="motorcycle113" type="motorcycle_motorcycle" depart="353.91" departLane="best" departSpeed="max" from="-327086081" to="199880987"/>
    <trip id="motorcycle114" type="motorcycle_motorcycle" depart="357.04" departLane="best" departSpeed="max" from="286673108" to="-240164157"/>
    <trip id="motorcycle115" type="motorcycle_motorcycle" depart="360.17" departLane="best" from="-199341732#1" to="-305176895#1"/>
    <trip id="motorcycle116" type="motorcycle_motorcycle" depart="363.30" departLane="best" from="184515334#1" to="305176901#1"/>
    <trip id="motorcycle117" type="motorcycle_motorcycle" depart="366.44" departLane="best" from="184515324#1" to="342138970#0"/>
    <trip id="motorcycle118" type="motorcycle_motorcycle" depart="369.57" departLane="best" from="199880990" to="305176894"/>
    <trip id="motorcycle119" type="motorcycle_motorcycle" depart="372.70" departLane="best" from="305176887" to="-199341680#2"/>
    <trip id="motorcycle120" type="motorcycle_motorcycle" depart="375.83" departLane="best" from="184515335#0" to="-184515330#1"/>
    <trip id="motorcycle122" type="motorcycle_motorcycle" depart="382.10" departLane="best" from="539264858#5" to="199341675"/>
    <trip id="motorcycle123" type="motorcycle_motorcycle" depart="385.23" departLane="best" from="-390527143" to="199341708#0"/>
    <trip id="motorcycle124" type="motorcycle_motorcycle" depart="388.36" departLane="best" from="-199341711#4" to="-199341677#0"/>
    <trip id="motorcycle125" type="motorcycle_motorcycle" depart="391.49" departLane="best" from="-390523331" to="539264853"/>
    <trip id="motorcycle127" type="motorcycle_motorcycle" depart="397.75" departLane="best" from="305176904" to="184515323#4"/>
    <trip id="motorcycle128" type="motorcycle_motorcycle" depart="400.89" departLane="best" from="184515324#1" to="-199341662#1"/>
    <trip id="motorcycle130" type="motorcycle_motorcycle" depart="407.15" departLane="best" from="-457948144" to="910969947"/>
    <trip id="motorcycle132" type="motorcycle_motorcycle" depart="413.41" departLane="best" from="184515852#0" to="305176901#0"/>
    <trip id="motorcycle133" type="motorcycle_motorcycle" depart="416.55" departLane="best" departSpeed="max" from="363199286" to="1130767899"/>
    <trip id="motorcycle134" type="motorcycle_motorcycle" depart="419.68" departLane="best" from="327086015#0" to="-199341664#0"/>
    <trip id="motorcycle135" type="motorcycle_motorcycle" depart="422.81" departLane="best" departSpeed="max" from="193131674#0" to="-390523327"/>
    <trip id="motorcycle136" type="motorcycle_motorcycle" depart="425.94" departLane="best" from="184515335#3" to="-240164146#0"/>
    <trip id="motorcycle139" type="motorcycle_motorcycle" depart="435.34" departLane="best" from="822002096#1" to="-305176896"/>
    <trip id="motorcycle140" type="motorcycle_motorcycle" depart="438.47" departLane="best" from="199341668#0" to="191714263#0"/>
    <trip id="motorcycle141" type="motorcycle_motorcycle" depart="441.60" departLane="best" departSpeed="max" from="301511503" to="-390527143"/>
    <trip id="motorcycle142" type="motorcycle_motorcycle" depart="444.73" departLane="best" departSpeed="max" from="199341703" to="199341660#0"/>
    <trip id="motorcycle143" type="motorcycle_motorcycle" depart="447.87" departLane="best" from="986044146" to="199341698"/>
    <trip id="motorcycle144" type="motorcycle_motorcycle" depart="451.00" departLane="best" from="305176901#1" to="305135153#1"/>
    <trip id="motorcycle145" type="motorcycle_motorcycle" depart="454.13" departLane="best" from="199341664#0" to="-305176890#1"/>
    <trip id="motorcycle146" type="motorcycle_motorcycle" depart="457.26" departLane="best" from="-659413628" to="-194338158#0"/>
    <trip id="motorcycle147" type="motorcycle_motorcycle" depart="460.39" departLane="best" from="240164148#0" to="-390566189#3"/>
    <trip id="motorcycle148" type="motorcycle_motorcycle" depart="463.53" departLane="best" from="-390527143" to="390564847#1"/>
    <trip id="motorcycle149" type="motorcycle_motorcycle" depart="466.66" departLane="best" departSpeed="max" from="-390526209" to="184515334#1"/>
    <trip id="motorcycle151" type="motorcycle_motorcycle" depart="472.92" departLane="best" departSpeed="max" from="-199341680#4" to="184515851"/>
    <trip id="motorcycle152" type="motorcycle_motorcycle" depart="476.05" departLane="best" departSpeed="max" from="-381445966#1" to="-199341677#1"/>
    <trip id="motorcycle153" type="motorcycle_motorcycle" depart="479.18" departLane="best" from="-184515324#0" to="-305176904"/>
    <trip id="motorcycle154" type="motorcycle_motorcycle" depart="482.32" departLane="best" from="184515335#2" to="199341700#1"/>
    <trip id="motorcycle155" type="motorcycle_motorcycle" depart="485.45" departLane="best" from="231532891" to="193391674"/>
    <trip id="motorcycle156" type="motorcycle_motorcycle" depart="488.58" departLane="best" from="191714258" to="-259431917#0"/>
    <trip id="motorcycle157" type="motorcycle_motorcycle" depart="491.71" departLane="best" from="193131675#2" to="539264863#0"/>
    <trip id="motorcycle158" type="motorcycle_motorcycle" depart="494.84" departLane="best" from="341485109#0" to="-199341711#9"/>
    <trip id="motorcycle159" type="motorcycle_motorcycle" depart="497.98" departLane="best" from="390523325#0" to="307900766"/>
    <trip id="motorcycle160" type="motorcycle_motorcycle" depart="501.11" departLane="best" departSpeed="max" from="240164157" to="-259692596#2"/>
    <trip id="motorcycle161" type="motorcycle_motorcycle" depart="504.24" departLane="best" from="-259431917#0" to="-184515335#1"/>
    <trip id="motorcycle162" type="motorcycle_motorcycle" depart="507.37" departLane="best" from="-305176895#1" to="194338158#2"/>
    <trip id="motorcycle163" type="motorcycle_motorcycle" depart="510.50" departLane="best" from="390564847#1" to="-194338159#0"/>
    <trip id="motorcycle164" type="motorcycle_motorcycle" depart="513.64" departLane="best" from="184515330#1" to="240164148#0"/>
    <trip id="motorcycle165" type="motorcycle_motorcycle" depart="516.77" departLane="best" from="231972352" to="-184515327#1"/>
    <trip id="motorcycle166" type="motorcycle_motorcycle" depart="519.90" departLane="best" from="305176891" to="342138970#0"/>
    <trip id="motorcycle167" type="motorcycle_motorcycle" depart="523.03" departLane="best" from="240164146#2" to="822002096#1"/>
    <trip id="motorcycle168" type="motorcycle_motorcycle" depart="526.16" departLane="best" from="194338161#1" to="193134171"/>
    <trip id="motorcycle169" type="motorcycle_motorcycle" depart="529.30" departLane="best" from="-305176897#2" to="390564847#1"/>
    <trip id="motorcycle171" type="motorcycle_motorcycle" depart="535.56" departLane="best" from="199341692#1" to="699104407"/>
    <trip id="motorcycle172" type="motorcycle_motorcycle" depart="538.69" departLane="best" from="534715114" to="-231288092#0"/>
    <trip id="motorcycle174" type="motorcycle_motorcycle" depart="544.96" departLane="best" departSpeed="max" from="-193131677" to="305176892"/>
    <trip id="motorcycle175" type="motorcycle_motorcycle" depart="548.09" departLane="best" from="305176896" to="240164152#0"/>
    <trip id="motorcycle176" type="motorcycle_motorcycle" depart="551.22" departLane="best" from="305176899#0" to="199341664#1"/>
    <trip id="motorcycle177" type="motorcycle_motorcycle" depart="554.35" departLane="best" departSpeed="max" from="199341717" to="-305176901#0"/>
    <trip id="motorcycle178" type="motorcycle_motorcycle" depart="557.48" departLane="best" from="194338161#2" to="-305176904"/>
    <trip id="motorcycle179" type="motorcycle_motorcycle" depart="560.61" departLane="best" departSpeed="max" from="-327086081" to="191714268#2"/>
    <trip id="motorcycle180" type="motorcycle_motorcycle" depart="563.75" departLane="best" departSpeed="max" from="199341666#0" to="199341686#0"/>
    <trip id="motorcycle181" type="motorcycle_motorcycle" depart="566.88" departLane="best" from="-305176888#0" to="301511502"/>
    <trip id="motorcycle182" type="motorcycle_motorcycle" depart="570.01" departLane="best" from="-260136265#0" to="-194338156"/>
    <trip id="motorcycle183" type="motorcycle_motorcycle" depart="573.14" departLane="best" from="184515327#0" to="199341673"/>
    <trip id="motorcycle184" type="motorcycle_motorcycle" depart="576.27" departLane="best" departSpeed="max" from="184515332#0" to="543417446"/>
    <trip id="motorcycle185" type="motorcycle_motorcycle" depart="579.41" departLane="best" from="184515332#1" to="301511496#2"/>
    <trip id="motorcycle186" type="motorcycle_motorcycle" depart="582.54" departLane="best" from="-199341686#1" to="301511505"/>
    <trip id="motorcycle188" type="motorcycle_motorcycle" depart="588.80" departLane="best" from="50301278#1" to="327086015#0"/>
    <trip id="motorcycle189" type="motorcycle_motorcycle" depart="591.93" departLane="best" from="390566189#2" to="699104408"/>
    <trip id="motorcycle190" type="motorcycle_motorcycle" depart="595.07" departLane="best" from="184515332#1" to="307900764"/>
    <trip id="motorcycle191" type="motorcycle_motorcycle" depart="598.20" departLane="best" from="199341666#3" to="199880987"/>
    <trip id="motorcycle192" type="motorcycle_motorcycle" depart="601.33" departLane="best" from="184515852#0" to="-184515852#0"/>
    <trip id="motorcycle193" type="motorcycle_motorcycle" depart="604.46" departLane="best" from="184515324#0" to="-199341711#4"/>
    <trip id="motorcycle194" type="motorcycle_motorcycle" depart="607.59" departLane="best" from="199341713" to="-184515335#3"/>
    <trip id="motorcycle195" type="motorcycle_motorcycle" depart="610.73" departLane="best" departSpeed="max" from="162070715" to="199341686#1"/>
    <trip id="motorcycle197" type="motorcycle_motorcycle" depart="616.99" departLane="best" from="305176892" to="390529699"/>
    <trip id="motorcycle198" type="motorcycle_motorcycle" depart="620.12" departLane="best" from="305176901#0" to="-194338160#2"/>
    <trip id="motorcycle199" type="motorcycle_motorcycle" depart="623.25" departLane="best" from="184515335#0" to="199341671#1"/>
    <trip id="motorcycle200" type="motorcycle_motorcycle" depart="626.39" departLane="best" from="990174281" to="-543417463"/>
    <trip id="motorcycle201" type="motorcycle_motorcycle" depart="629.52" departLane="best" from="231532890#2" to="327086015#0"/>
    <trip id="motorcycle202" type="motorcycle_motorcycle" depart="632.65" departLane="best" from="699104404" to="240164152#1"/>
    <trip id="motorcycle203" type="motorcycle_motorcycle" depart="635.78" departLane="best" from="184515335#0" to="-199341700#0"/>
    <trip id="motorcycle204" type="motorcycle_motorcycle" depart="638.91" departLane="best" departSpeed="max" from="-199341680#4" to="259692596#2"/>
    <trip id="motorcycle205" type="motorcycle_motorcycle" depart="642.05" departLane="best" from="199341673" to="-259431917#2"/>
    <trip id="motorcycle207" type="motorcycle_motorcycle" depart="648.31" departLane="best" from="231532888" to="199880990"/>
    <trip id="motorcycle208" type="motorcycle_motorcycle" depart="651.44" departLane="best" from="305176889#0" to="-199341666#2"/>
    <trip id="motorcycle209" type="motorcycle_motorcycle" depart="654.57" departLane="best" from="199341668#0" to="-184515335#2"/>
    <trip id="motorcycle210" type="motorcycle_motorcycle" depart="657.70" departLane="best" departSpeed="max" from="-390526209" to="260136265#3"/>
    <trip id="motorcycle211" type="motorcycle_motorcycle" depart="660.84" departLane="best" from="260136266#4" to="-194338159#1"/>
    <trip id="motorcycle213" type="motorcycle_motorcycle" depart="667.10" departLane="best" departSpeed="max" from="-199341664#1" to="350463977#0"/>
    <trip id="motorcycle214" type="motorcycle_motorcycle" depart="670.23" departLane="best" from="390564847#1" to="199341723"/>
    <trip id="motorcycle215" type="motorcycle_motorcycle" depart="673.36" departLane="best" from="307900765#0" to="-543417428"/>
    <trip id="motorcycle216" type="motorcycle_motorcycle" depart="676.50" departLane="best" from="184515335#2" to="-699104406#4"/>
    <trip id="motorcycle217" type="motorcycle_motorcycle" depart="679.63" departLane="best" from="390564847#1" to="390527141"/>
    <trip id="motorcycle218" type="motorcycle_motorcycle" depart="682.76" departLane="best" from="199341671#0" to="-390527145#2"/>
    <trip id="motorcycle219" type="motorcycle_motorcycle" depart="685.89" departLane="best" from="-699104409" to="910969925"/>
    <trip id="motorcycle220" type="motorcycle_motorcycle" depart="689.02" departLane="best" from="199341664#0" to="-194338159#2"/>
    <trip id="motorcycle221" type="motorcycle_motorcycle" depart="692.16" departLane="best" from="184515851" to="305176897#1"/>
    <trip id="motorcycle222" type="motorcycle_motorcycle" depart="695.29" departLane="best" from="327086016" to="-390566189#3"/>
    <trip id="motorcycle223" type="motorcycle_motorcycle" depart="698.42" departLane="best" from="390523335" to="-194338161#1"/>
    <trip id="motorcycle224" type="motorcycle_motorcycle" depart="701.55" departLane="best" from="50301278#2" to="-305172100"/>
    <trip id="motorcycle226" type="motorcycle_motorcycle" depart="707.82" departLane="best" from="259692596#1" to="-305176901#2"/>
    <trip id="motorcycle227" type="motorcycle_motorcycle" depart="710.95" departLane="best" from="-184515330#1" to="699104406#2"/>