<?xml version="1.0" encoding="UTF-8"?>

<!-- generated on 2024-09-16 21:16:03.063314 by osmWebWizard.py v1_20_0+0002-343658e7c64
<configuration>
    <net-file value="C:\Users\laboratorio\Sumo\2024-09-16-21-15-53\osm.net.xml.gz"/>
    <output-trip-file value="C:\Users\laboratorio\Sumo\2024-09-16-21-15-53\osm.pedestrian.trips.xml"/>
    <route-file value="C:\Users\laboratorio\Sumo\2024-09-16-21-15-53\osm.pedestrian.rou.xml"/>
    <pedestrians value="True"/>
    <prefix value="ped"/>
    <vehicle-class value="pedestrian"/>
    <fringe-factor value="1"/>
    <max-distance value="2000.0"/>
    <insertion-density value="500.0"/>
</configuration>
-->

<!-- generated on 2024-09-16 21:16:02 by Eclipse SUMO duarouter Version 1.20.0
<configuration xmlns:xsi="http://www.w3.org/2001/XMLSchema-instance" xsi:noNamespaceSchemaLocation="http://sumo.dlr.de/xsd/duarouterConfiguration.xsd">

    <input>
        <net-file value="C:\Users\laboratorio\Sumo\2024-09-16-21-15-53\osm.net.xml.gz"/>
        <route-files value="C:\Users\laboratorio\Sumo\2024-09-16-21-15-53\osm.pedestrian.trips.xml"/>
    </input>

    <output>
        <output-file value="C:\Users\laboratorio\Sumo\2024-09-16-21-15-53\osm.pedestrian.rou.xml"/>
        <alternatives-output value="NUL"/>
    </output>

    <time>
        <begin value="0.0"/>
        <end value="3600.0"/>
    </time>

    <report>
        <no-warnings value="true"/>
        <ignore-errors value="true"/>
        <no-step-log value="true"/>
    </report>

</configuration>
-->

<routes xmlns:xsi="http://www.w3.org/2001/XMLSchema-instance" xsi:noNamespaceSchemaLocation="http://sumo.dlr.de/xsd/routes_file.xsd">
    <vType id="ped_pedestrian" vClass="pedestrian"/>
    <person id="ped0" type="ped_pedestrian" depart="0.00">
        <walk edges="390523325#0 -193131677"/>
    </person>
    <person id="ped2" type="ped_pedestrian" depart="2.93">
        <walk edges="390523331 390523325#1 390523325#0"/>
    </person>
    <person id="ped3" type="ped_pedestrian" depart="4.40">
        <walk edges="391275414#0 391275414#1 -390523329"/>
    </person>
    <person id="ped4" type="ped_pedestrian" depart="5.87">
        <walk edges="193131677 -193131677"/>
    </person>
    <person id="ped5" type="ped_pedestrian" depart="7.34">
        <walk edges="184515323#4 184515323#0 307900765#0"/>
    </person>
    <person id="ped9" type="ped_pedestrian" depart="13.21">
        <walk edges="390523335 193131674#2 390523325#0 -193131677"/>
    </person>
    <person id="ped10" type="ped_pedestrian" depart="14.67">
        <walk edges="390523335 193131674#2 390523325#1"/>
    </person>
    <person id="ped12" type="ped_pedestrian" depart="17.61">
        <walk edges="981022850#0 -390523329 391275414#1 193131674#1"/>
    </person>
    <person id="ped13" type="ped_pedestrian" depart="19.08">
        <walk edges="-390523331"/>
    </person>
    <person id="ped14" type="ped_pedestrian" depart="20.54">
        <walk edges="390523337#1 193131674#1 391275414#1 390523320#1 390523320#2"/>
    </person>
    <person id="ped15" type="ped_pedestrian" depart="22.01">
        <walk edges="390523335 390523331"/>
    </person>
    <person id="ped17" type="ped_pedestrian" depart="24.95">
        <walk edges="193131674#2 193131674#1 391275414#1 390523320#1"/>
    </person>
    <person id="ped18" type="ped_pedestrian" depart="26.41">
        <walk edges="390523337#1 193131674#1 391275414#1 390523320#1 390523320#2"/>
    </person>
    <person id="ped19" type="ped_pedestrian" depart="27.88">
        <walk edges="390523337#1 193131674#1 391275414#1 390523320#1"/>
    </person>
    <person id="ped20" type="ped_pedestrian" depart="29.35">
        <walk edges="390523325#1 193131674#2 390523335 -390523329"/>
    </person>
    <person id="ped23" type="ped_pedestrian" depart="33.75">
        <walk edges="-390523331 -390523329 391275414#1 193131674#0"/>
    </person>
    <person id="ped24" type="ped_pedestrian" depart="35.22">
        <walk edges="390523320#2 390523320#1 391275414#1 193131674#1 193131674#2"/>
    </person>
    <person id="ped27" type="ped_pedestrian" depart="39.62">
        <walk edges="390523325#0 193131674#2 193131674#1 391275414#1 390523320#1 390523320#2"/>
    </person>
    <person id="ped30" type="ped_pedestrian" depart="44.02">
        <walk edges="981022850#0 390523335 193131674#2 390523325#0"/>
    </person>
    <person id="ped31" type="ped_pedestrian" depart="45.49">
        <walk edges="390523320#1 391275414#1 193131674#1 193131674#2 390523325#1"/>
    </person>
    <person id="ped32" type="ped_pedestrian" depart="46.96">
        <walk edges="390523337#1 390523335"/>
    </person>
    <person id="ped36" type="ped_pedestrian" depart="52.83">
        <walk edges="391275414#0 193131674#0"/>
    </person>
    <person id="ped37" type="ped_pedestrian" depart="54.30">
        <walk edges="390523325#0 193131674#2"/>
    </person>
    <person id="ped38" type="ped_pedestrian" depart="55.76">
        <walk edges="391275414#1 391275414#0 259692060"/>
    </person>
    <person id="ped39" type="ped_pedestrian" depart="57.23">
        <walk edges="184515323#6"/>
    </person>
    <person id="ped41" type="ped_pedestrian" depart="60.17">
        <walk edges="390523320#1 391275414#1 391275414#0"/>
    </person>
    <person id="ped44" type="ped_pedestrian" depart="64.57">
        <walk edges="-390523331 -390523329"/>
    </person>
    <person id="ped45" type="ped_pedestrian" depart="66.04">
        <walk edges="-390523331 -390523329 390523320#1 390523320#2"/>
    </person>
    <person id="ped46" type="ped_pedestrian" depart="67.50">
        <walk edges="390523335 193131674#2 390523325#0 193131677"/>
    </person>
    <person id="ped47" type="ped_pedestrian" depart="68.97">
        <walk edges="-390523329 390523335 193131674#2"/>
    </person>
    <person id="ped49" type="ped_pedestrian" depart="71.91">
        <walk edges="981022850#0 390523335 390523337#1"/>
    </person>
    <person id="ped50" type="ped_pedestrian" depart="73.37">
        <walk edges="-193131677 390523325#0 390523325#1"/>
    </person>
    <person id="ped53" type="ped_pedestrian" depart="77.78">
        <walk edges="-390523331 390523335 193131674#2 390523325#0 193131677"/>
    </person>
    <person id="ped54" type="ped_pedestrian" depart="79.24">
        <walk edges="193131677 390523325#0 193131674#2 193131674#1 391275414#1"/>
    </person>
    <person id="ped56" type="ped_pedestrian" depart="82.18">
        <walk edges="307900765#0 184515323#0"/>
    </person>
    <person id="ped57" type="ped_pedestrian" depart="83.65">
        <walk edges="391275414#1 391275414#0"/>
    </person>
    <person id="ped58" type="ped_pedestrian" depart="85.11">
        <walk edges="193131674#0 193131674#1 193131674#2 390523325#0"/>
    </person>
    <person id="ped62" type="ped_pedestrian" depart="90.98">
        <walk edges="-193131677 390523325#0 193131674#2 193131674#1"/>
    </person>
    <person id="ped63" type="ped_pedestrian" depart="92.45">
        <walk edges="-193131677 390523325#0 193131674#2 193131674#1 391275414#1"/>
    </person>
    <person id="ped64" type="ped_pedestrian" depart="93.92">
        <walk edges="391275414#0 193131674#1 390523337#1"/>
    </person>
    <person id="ped65" type="ped_pedestrian" depart="95.39">
        <walk edges="193131674#0 391275414#1 -390523329"/>
    </person>
    <person id="ped66" type="ped_pedestrian" depart="96.85">
        <walk edges="391275414#0 391275414#1"/>
    </person>
    <person id="ped67" type="ped_pedestrian" depart="98.32">
        <walk edges="-390523329 391275414#1 391275414#0 259692060"/>
    </person>
    <person id="ped68" type="ped_pedestrian" depart="99.79">
        <walk edges="-390523329 390523331"/>
    </person>
    <person id="ped69" type="ped_pedestrian" depart="101.26">
        <walk edges="390523331 -390523331"/>
    </person>
    <person id="ped70" type="ped_pedestrian" depart="102.72">
        <walk edges="259692060 391275414#0 391275414#1 390523320#1"/>
    </person>
    <person id="ped75" type="ped_pedestrian" depart="110.06">
        <walk edges="981022850#0 390523335 193131674#2 390523325#0"/>
    </person>
    <person id="ped78" type="ped_pedestrian" depart="114.46">
        <walk edges="193131674#1 391275414#1 390523320#1"/>
    </person>
    <person id="ped79" type="ped_pedestrian" depart="115.93">
        <walk edges="184515323#6 184515323#4"/>
    </person>
    <person id="ped80" type="ped_pedestrian" depart="117.40">
        <walk edges="-390523329 390523320#1 390523320#2"/>
    </person>
    <person id="ped82" type="ped_pedestrian" depart="120.33">
        <walk edges="390523337#1 390523335 -390523329"/>
    </person>
    <person id="ped85" type="ped_pedestrian" depart="124.74">
        <walk edges="391275414#1 390523320#1"/>
    </person>
    <person id="ped86" type="ped_pedestrian" depart="126.20">
        <walk edges="259692060 391275414#0 193131674#1 390523335"/>
    </person>
    <person id="ped88" type="ped_pedestrian" depart="129.14">
        <walk edges="-390523331 390523335 193131674#2 390523325#0 193131677"/>
    </person>
    <person id="ped89" type="ped_pedestrian" depart="130.61">
        <walk edges="193131677 390523325#0 193131674#2 193131674#1 391275414#0 259692060"/>
    </person>
    <person id="ped90" type="ped_pedestrian" depart="132.07">
        <walk edges="390523331 390523325#1 390523325#0"/>
    </person>
    <person id="ped91" type="ped_pedestrian" depart="133.54">
        <walk edges="981022850#0 -390523331"/>
    </person>
    <person id="ped92" type="ped_pedestrian" depart="135.01">
        <walk edges="193131674#2 193131674#1"/>
    </person>
    <person id="ped95" type="ped_pedestrian" depart="139.41">
        <walk edges="193131677 390523325#0 193131674#2 193131674#1 193131674#0"/>
    </person>
    <person id="ped97" type="ped_pedestrian" depart="142.35">
        <walk edges="193131677 390523325#0 193131674#2 390523337#1"/>
    </person>
    <person id="ped98" type="ped_pedestrian" depart="143.81">
        <walk edges="390523320#1 -390523329"/>
    </person>
    <person id="ped99" type="ped_pedestrian" depart="145.28">
        <walk edges="981022850#0 390523335 390523337#1"/>
    </person>
    <person id="ped100" type="ped_pedestrian" depart="146.75">
        <walk edges="981022850#0 -390523329 391275414#1"/>
    </person>
    <person id="ped103" type="ped_pedestrian" depart="151.15">
        <walk edges="193131674#2 390523335 -390523329"/>
    </person>
    <person id="ped104" type="ped_pedestrian" depart="152.62">
        <walk edges="193131674#2 390523335 981022850#0"/>
    </person>
    <person id="ped106" type="ped_pedestrian" depart="155.55">
        <walk edges="259692060 391275414#0 193131674#1 193131674#2 390523325#0 193131677"/>
    </person>
    <person id="ped107" type="ped_pedestrian" depart="157.02">
        <walk edges="981022850#0"/>
    </person>
    <person id="ped108" type="ped_pedestrian" depart="158.49">
        <walk edges="390523320#1 391275414#1 193131674#1 193131674#2 390523325#1"/>
    </person>
    <person id="ped110" type="ped_pedestrian" depart="161.42">
        <walk edges="981022850#0 -390523329 390523320#1"/>
    </person>
    <person id="ped112" type="ped_pedestrian" depart="164.36">
        <walk edges="-390523329 390523320#1"/>
    </person>
    <person id="ped116" type="ped_pedestrian" depart="170.23">
        <walk edges="390523320#2 390523320#1 391275414#1 193131674#1 193131674#2 390523325#0"/>
    </person>
    <person id="ped119" type="ped_pedestrian" depart="174.63">
        <walk edges="390523320#2"/>
    </person>
    <person id="ped120" type="ped_pedestrian" depart="176.10">
        <walk edges="193131677 390523325#0 193131674#2 193131674#1 391275414#1 390523320#1"/>
    </person>
    <person id="ped124" type="ped_pedestrian" depart="181.97">
        <walk edges="390523325#0 193131674#2 193131674#1 193131674#0"/>
    </person>
    <person id="ped125" type="ped_pedestrian" depart="183.44">
        <walk edges="193131674#0 193131674#1 193131674#2 390523325#1 390523331"/>
    </person>
    <person id="ped126" type="ped_pedestrian" depart="184.90">
        <walk edges="-390523329 391275414#1 391275414#0 259692060"/>
    </person>
    <person id="ped127" type="ped_pedestrian" depart="186.37">
        <walk edges="981022850#0"/>
    </person>
    <person id="ped130" type="ped_pedestrian" depart="190.77">
        <walk edges="391275414#0"/>
    </person>
    <person id="ped132" type="ped_pedestrian" depart="193.71">
        <walk edges="390523337#1 193131674#2 390523325#1"/>
    </person>
    <person id="ped133" type="ped_pedestrian" depart="195.18">
        <walk edges="390523320#2 390523320#1 -390523329 981022850#0"/>
    </person>
    <person id="ped134" type="ped_pedestrian" depart="196.64">
        <walk edges="390523325#0 -193131677"/>
    </person>
    <person id="ped135" type="ped_pedestrian" depart="198.11">
        <walk edges="390523335 193131674#1 193131674#0"/>
    </person>
    <person id="ped136" type="ped_pedestrian" depart="199.58">
        <walk edges="390523325#0 193131674#2 193131674#1 391275414#1"/>
    </person>
    <person id="ped137" type="ped_pedestrian" depart="201.05">
        <walk edges="-390523331"/>
    </person>
    <person id="ped138" type="ped_pedestrian" depart="202.51">
        <walk edges="-390523331 -390523329 390523320#1"/>
    </person>
    <person id="ped142" type="ped_pedestrian" depart="208.38">
        <walk edges="259692060 391275414#0"/>
    </person>
    <person id="ped143" type="ped_pedestrian" depart="209.85">
        <walk edges="390523337#1 390523335 -390523331"/>
    </person>
    <person id="ped144" type="ped_pedestrian" depart="211.32">
        <walk edges="193131677 390523325#0 193131674#2 193131674#1 193131674#0"/>
    </person>
    <person id="ped145" type="ped_pedestrian" depart="212.79">
        <walk edges="-193131677 390523325#0 390523325#1 390523331"/>
    </person>
    <person id="ped147" type="ped_pedestrian" depart="215.72">
        <walk edges="390523331 -390523329 390523320#1"/>
    </person>
    <person id="ped148" type="ped_pedestrian" depart="217.19">
        <walk edges="193131677 -193131677"/>
    </person>
    <person id="ped149" type="ped_pedestrian" depart="218.66">
        <walk edges="-390523329 391275414#1 391275414#0"/>
    </person>
    <person id="ped150" type="ped_pedestrian" depart="220.12">
        <walk edges="391275414#0 391275414#1 390523320#1"/>
    </person>
    <person id="ped151" type="ped_pedestrian" depart="221.59">
        <walk edges="390523337#1 193131674#1 391275414#1 390523320#1"/>
    </person>
    <person id="ped153" type="ped_pedestrian" depart="224.53">
        <walk edges="193131674#0 391275414#0"/>
    </person>
    <person id="ped154" type="ped_pedestrian" depart="225.99">
        <walk edges="390523335 390523337#1"/>
    </person>
    <person id="ped157" type="ped_pedestrian" depart="230.40">
        <walk edges="390523335 193131674#1 391275414#0"/>
    </person>
    <person id="ped158" type="ped_pedestrian" depart="231.86">
        <walk edges="193131674#2 193131674#1 391275414#1 390523320#1 390523320#2"/>
    </person>
    <person id="ped160" type="ped_pedestrian" depart="234.80">
        <walk edges="391275414#0 391275414#1 -390523329 981022850#0"/>
    </person>
    <person id="ped161" type="ped_pedestrian" depart="236.27">
        <walk edges="390523335 193131674#1 391275414#0"/>
    </person>
    <person id="ped162" type="ped_pedestrian" depart="237.73">
        <walk edges="-193131677 390523325#0 390523325#1 390523331"/>
    </person>
    <person id="ped163" type="ped_pedestrian" depart="239.20">
        <walk edges="193131674#1 391275414#1"/>
    </person>
    <person id="ped164" type="ped_pedestrian" depart="240.67">
        <walk edges="390523335 193131674#1 391275414#0"/>
    </person>
    <person id="ped166" type="ped_pedestrian" depart="243.60">
        <walk edges="390523335 -390523331"/>
    </person>
    <person id="ped167" type="ped_pedestrian" depart="245.07">
        <walk edges="391275414#0 193131674#1 390523337#1"/>
    </person>
    <person id="ped169" type="ped_pedestrian" depart="248.01">
        <walk edges="259692060 391275414#0 193131674#0"/>
    </person>
    <person id="ped172" type="ped_pedestrian" depart="252.41">
        <walk edges="193131674#1 391275414#0"/>
    </person>
    <person id="ped173" type="ped_pedestrian" depart="253.88">
        <walk edges="981022850#0 -390523329 391275414#1 193131674#0"/>
    </person>
    <person id="ped174" type="ped_pedestrian" depart="255.34">
        <walk edges="390523325#0 193131674#2"/>
    </person>
    <person id="ped176" type="ped_pedestrian" depart="258.28">
        <walk edges="391275414#1 -390523329 -390523331"/>
    </person>
    <person id="ped179" type="ped_pedestrian" depart="262.68">
        <walk edges="-390523331 390523335 193131674#2 390523325#0 193131677"/>
    </person>
    <person id="ped180" type="ped_pedestrian" depart="264.15">
        <walk edges="390523331 390523325#1 193131674#2 193131674#1 193131674#0"/>
    </person>
    <person id="ped182" type="ped_pedestrian" depart="267.08">
        <walk edges="193131674#2 193131674#1 391275414#1 390523320#1"/>
    </person>
    <person id="ped184" type="ped_pedestrian" depart="270.02">
        <walk edges="-193131677 390523325#0 193131674#2 193131674#1 391275414#1"/>
    </person>
    <person id="ped186" type="ped_pedestrian" depart="272.95">
        <walk edges="390523331 390523325#1 390523325#0"/>
    </person>
    <person id="ped187" type="ped_pedestrian" depart="274.42">
        <walk edges="193131674#2 390523335 -390523329"/>
    </person>
    <person id="ped188" type="ped_pedestrian" depart="275.89">
        <walk edges="390523325#0 193131674#2 193131674#1"/>
    </person>
    <person id="ped189" type="ped_pedestrian" depart="277.36">
        <walk edges="193131674#0 193131674#1 390523337#1"/>
    </person>
    <person id="ped190" type="ped_pedestrian" depart="278.82">
        <walk edges="390523325#1 193131674#2 193131674#1 193131674#0"/>
    </person>
    <person id="ped191" type="ped_pedestrian" depart="280.29">
        <walk edges="193131674#0 193131674#1 193131674#2"/>
    </person>
    <person id="ped192" type="ped_pedestrian" depart="281.76">
        <walk edges="193131674#2 193131674#1 193131674#0"/>
    </person>
    <person id="ped193" type="ped_pedestrian" depart="283.23">
        <walk edges="-390523331 390523335 193131674#2 390523325#0 193131677"/>
    </person>
    <person id="ped194" type="ped_pedestrian" depart="284.69">
        <walk edges="391275414#1 193131674#1 193131674#2 390523325#0"/>
    </person>
    <person id="ped195" type="ped_pedestrian" depart="286.16">
        <walk edges="391275414#0 391275414#1 390523320#1 390523320#2"/>
    </person>
    <person id="ped196" type="ped_pedestrian" depart="287.63">
        <walk edges="193131674#0 391275414#1 390523320#1"/>
    </person>
    <person id="ped197" type="ped_pedestrian" depart="289.10">
        <walk edges="-193131677 390523325#0 193131674#2 193131674#1 193131674#0"/>
    </person>
    <person id="ped198" type="ped_pedestrian" depart="290.56">
        <walk edges="193131677 390523325#0 193131674#2 193131674#1 391275414#1 390523320#1"/>
    </person>
    <person id="ped199" type="ped_pedestrian" depart="292.03">
        <walk edges="390523325#0 193131674#2 193131674#1 391275414#0 259692060"/>
    </person>
    <person id="ped201" type="ped_pedestrian" depart="294.97">
        <walk edges="259692060 391275414#0"/>
    </person>
    <person id="ped204" type="ped_pedestrian" depart="299.37">
        <walk edges="390523320#2 390523320#1 391275414#1 193131674#1"/>
    </person>
    <person id="ped205" type="ped_pedestrian" depart="300.84">
        <walk edges="390523337#1 193131674#2 390523325#1 390523331"/>
    </person>
    <person id="ped209" type="ped_pedestrian" depart="306.71">
        <walk edges="390523337#1 390523335 -390523329"/>
    </person>
    <person id="ped210" type="ped_pedestrian" depart="308.17">
        <walk edges="193131677 390523325#0 193131674#2 193131674#1 391275414#1 390523320#1 390523320#2"/>
    </person>
    <person id="ped213" type="ped_pedestrian" depart="312.58">
        <walk edges="390523325#0 -193131677"/>
    </person>
    <person id="ped214" type="ped_pedestrian" depart="314.04">
        <walk edges="390523331"/>
    </person>
    <person id="ped215" type="ped_pedestrian" depart="315.51">
        <walk edges="-390523331 390523335 193131674#2 390523325#0 193131677"/>
    </person>
    <person id="ped219" type="ped_pedestrian" depart="321.38">
        <walk edges="259692060 391275414#0 193131674#1 390523335"/>
    </person>
    <person id="ped220" type="ped_pedestrian" depart="322.85">
        <walk edges="390523325#0 193131674#2 390523335 981022850#0"/>
    </person>
    <person id="ped221" type="ped_pedestrian" depart="324.32">
        <walk edges="390523320#2 390523320#1 391275414#1"/>
    </person>
    <person id="ped222" type="ped_pedestrian" depart="325.78">
        <walk edges="391275414#0 391275414#1 390523320#1 390523320#2"/>
    </person>
    <person id="ped224" type="ped_pedestrian" depart="328.72">
        <walk edges="390523337#1 193131674#1 391275414#1 390523320#1"/>
    </person>
    <person id="ped225" type="ped_pedestrian" depart="330.19">
        <walk edges="391275414#0 193131674#1 193131674#2 390523325#1 390523331"/>
    </person>
    <person id="ped229" type="ped_pedestrian" depart="336.05">
        <walk edges="390523320#2 390523320#1 391275414#1 193131674#0"/>
    </person>
    <person id="ped230" type="ped_pedestrian" depart="337.52">
        <walk edges="-390523329 391275414#1 193131674#0"/>
    </person>
    <person id="ped232" type="ped_pedestrian" depart="340.46">
        <walk edges="307900765#0 184515323#0"/>
    </person>
    <person id="ped234" type="ped_pedestrian" depart="343.39">
        <walk edges="390523325#1 193131674#2 390523335 -390523329"/>
    </person>
    <person id="ped237" type="ped_pedestrian" depart="347.79">
        <walk edges="193131677 390523325#0 193131674#2 193131674#1 391275414#0"/>
    </person>
    <person id="ped238" type="ped_pedestrian" depart="349.26">
        <walk edges="390523320#1 391275414#1 193131674#1 193131674#2 390523325#1"/>
    </person>
    <person id="ped239" type="ped_pedestrian" depart="350.73">
        <walk edges="390523337#1 193131674#2 390523325#1 390523331"/>
    </person>
    <person id="ped240" type="ped_pedestrian" depart="352.20">
        <walk edges="193131674#2 390523325#0 -193131677"/>
    </person>
    <person id="ped241" type="ped_pedestrian" depart="353.66">
        <walk edges="193131674#1 193131674#2 390523325#1 390523331"/>
    </person>
    <person id="ped242" type="ped_pedestrian" depart="355.13">
        <walk edges="390523337#1 193131674#1 391275414#1"/>
    </person>
    <person id="ped243" type="ped_pedestrian" depart="356.60">
        <walk edges="193131677 390523325#0 390523325#1 390523331"/>
    </person>
    <person id="ped244" type="ped_pedestrian" depart="358.07">
        <walk edges="390523320#1 390523320#2"/>
    </person>
    <person id="ped245" type="ped_pedestrian" depart="359.53">
        <walk edges="184515323#4"/>
    </person>
    <person id="ped246" type="ped_pedestrian" depart="361.00">
        <walk edges="193131677 -193131677"/>
    </person>
    <person id="ped247" type="ped_pedestrian" depart="362.47">
        <walk edges="193131674#1 193131674#2 390523325#0"/>
    </person>
    <person id="ped249" type="ped_pedestrian" depart="365.40">
        <walk edges="259692060 391275414#0 391275414#1 -390523329 -390523331"/>
    </person>
    <person id="ped250" type="ped_pedestrian" depart="366.87">
        <walk edges="390523320#2 390523320#1 391275414#1 193131674#1 193131674#2 390523325#0 -193131677"/>
    </person>
    <person id="ped251" type="ped_pedestrian" depart="368.34">
        <walk edges="193131674#2 193131674#1 391275414#1 390523320#1"/>
    </person>
    <person id="ped252" type="ped_pedestrian" depart="369.81">
        <walk edges="-193131677 390523325#0"/>
    </person>
    <person id="ped253" type="ped_pedestrian" depart="371.27">
        <walk edges="-390523331 -390523329 391275414#1 391275414#0 259692060"/>
    </person>
    <person id="ped254" type="ped_pedestrian" depart="372.74">
        <walk edges="-390523329 390523335 193131674#2"/>
    </person>
    <person id="ped256" type="ped_pedestrian" depart="375.68">
        <walk edges="390523331 390523325#1 193131674#2"/>
    </person>
    <person id="ped257" type="ped_pedestrian" depart="377.14">
        <walk edges="390523331 390523325#1 193131674#2 390523337#1"/>
    </person>
    <person id="ped260" type="ped_pedestrian" depart="381.55">
        <walk edges="981022850#0 -390523329 391275414#1 193131674#1"/>
    </person>
    <person id="ped261" type="ped_pedestrian" depart="383.01">
        <walk edges="390523325#0 193131674#2 390523335"/>
    </person>
    <person id="ped262" type="ped_pedestrian" depart="384.48">
        <walk edges="390523325#0 390523325#1 390523331"/>
    </person>
    <person id="ped265" type="ped_pedestrian" depart="388.88">
        <walk edges="-390523331 390523335 193131674#2 390523325#0"/>
    </person>
    <person id="ped267" type="ped_pedestrian" depart="391.82">
        <walk edges="390523325#1 390523331"/>
    </person>
    <person id="ped269" type="ped_pedestrian" depart="394.75">
        <walk edges="390523331 -390523331"/>
    </person>
    <person id="ped270" type="ped_pedestrian" depart="396.22">
        <walk edges="390523337#1 390523335 981022850#0"/>
    </person>
    <person id="ped271" type="ped_pedestrian" depart="397.69">
        <walk edges="-390523331 390523335 193131674#2 390523325#0 -193131677"/>
    </person>
    <person id="ped272" type="ped_pedestrian" depart="399.16">
        <walk edges="193131674#0 193131674#1 193131674#2 390523325#0"/>
    </person>
    <person id="ped273" type="ped_pedestrian" depart="400.62">
        <walk edges="981022850#0 390523335 193131674#2"/>
    </person>
    <person id="ped274" type="ped_pedestrian" depart="402.09">
        <walk edges="390523325#1 193131674#2 390523335 -390523329"/>
    </person>
    <person id="ped275" type="ped_pedestrian" depart="403.56">
        <walk edges="390523325#1 193131674#2 193131674#1 391275414#1 390523320#1 390523320#2"/>
    </person>
    <person id="ped276" type="ped_pedestrian" depart="405.03">
        <walk edges="-390523331 390523331"/>
    </person>
    <person id="ped277" type="ped_pedestrian" depart="406.49">
        <walk edges="390523337#1 193131674#1 391275414#1 390523320#1 390523320#2"/>
    </person>
    <person id="ped278" type="ped_pedestrian" depart="407.96">
        <walk edges="-390523331 981022850#0"/>
    </person>
    <person id="ped279" type="ped_pedestrian" depart="409.43">
        <walk edges="390523335 193131674#1"/>
    </person>
    <person id="ped280" type="ped_pedestrian" depart="410.90">
        <walk edges="193131677 390523325#0 193131674#2"/>
    </person>
    <person id="ped282" type="ped_pedestrian" depart="413.83">
        <walk edges="390523337#1"/>
    </person>
    <person id="ped283" type="ped_pedestrian" depart="415.30">
        <walk edges="-390523331 981022850#0"/>
    </person>
    <person id="ped284" type="ped_pedestrian" depart="416.77">
        <walk edges="390523320#2 390523320#1 391275414#1 193131674#1 390523337#1"/>
    </person>
    <person id="ped285" type="ped_pedestrian" depart="418.23">
        <walk edges="390523325#1 390523325#0 193131677"/>
    </person>
    <person id="ped286" type="ped_pedestrian" depart="419.70">
        <walk edges="390523331 981022850#0"/>
    </person>
    <person id="ped289" type="ped_pedestrian" depart="424.10">
        <walk edges="193131677 390523325#0 390523325#1 390523331"/>
    </person>
    <person id="ped291" type="ped_pedestrian" depart="427.04">
        <walk edges="390523337#1 390523335 -390523329"/>
    </person>
    <person id="ped293" type="ped_pedestrian" depart="429.97">
        <walk edges="259692060 391275414#0 391275414#1 390523320#1 390523320#2"/>
    </person>
    <person id="ped294" type="ped_pedestrian" depart="431.44">
        <walk edges="193131674#2 390523325#0 -193131677"/>
    </person>
    <person id="ped297" type="ped_pedestrian" depart="435.84">
        <walk edges="193131674#1 391275414#0"/>
    </person>
    <person id="ped298" type="ped_pedestrian" depart="437.31">
        <walk edges="390523325#1 193131674#2 193131674#1 193131674#0"/>
    </person>
    <person id="ped299" type="ped_pedestrian" depart="438.78">
        <walk edges="-193131677 390523325#0 193131674#2 193131674#1 391275414#1"/>
    </person>
    <person id="ped300" type="ped_pedestrian" depart="440.25">
        <walk edges="-390523329 390523335 193131674#2 390523325#1"/>
    </person>
    <person id="ped301" type="ped_pedestrian" depart="441.71">
        <walk edges="259692060 391275414#0 193131674#1 193131674#2 390523325#1 390523331"/>
    </person>
    <person id="ped302" type="ped_pedestrian" depart="443.18">
        <walk edges="390523325#1 390523325#0"/>
    </person>
    <person id="ped303" type="ped_pedestrian" depart="444.65">
        <walk edges="259692060 391275414#0 193131674#1 390523335"/>
    </person>
    <person id="ped305" type="ped_pedestrian" depart="447.58">
        <walk edges="390523325#1 193131674#2 193131674#1 193131674#0"/>
    </person>
    <person id="ped306" type="ped_pedestrian" depart="449.05">
        <walk edges="390523320#1 391275414#1 391275414#0 259692060"/>
    </person>
    <person id="ped308" type="ped_pedestrian" depart="451.99">
        <walk edges="390523331 390523325#1 193131674#2 193131674#1"/>
    </person>
    <person id="ped313" type="ped_pedestrian" depart="459.32">
        <walk edges="184515323#4"/>
    </person>
    <person id="ped314" type="ped_pedestrian" depart="460.79">